
 Created by Python create_sdf_string function

 28  0  0  0  0  0  0  0  0  0999 V2000
    0.0000    0.0000    0.0000 C   0  0  0  0  0  0  0  0  0  0  0  0
    0.1652    2.1375    0.1478 C   0  0  0  0  0  0  0  0  0  0  0  0
   -1.3352    2.5714    0.3704 C   0  0  0  0  0  0  0  0  0  0  0  0
   -0.1477    1.8003    1.0456 C   0  0  0  0  0  0  0  0  0  0  0  0
   -0.2560   -1.5547   -0.5711 C   0  0  0  0  0  0  0  0  0  0  0  0
    0.5685   -2.1177   -0.9275 C   0  0  0  0  0  0  0  0  0  0  0  0
   -0.7821    1.5060    0.3639 C   0  0  0  0  0  0  0  0  0  0  0  0
    0.9884   -1.5338    1.1591 C   0  0  0  0  0  0  0  0  0  0  0  0
   -1.1815    0.8373   -1.1739 C   0  0  0  0  0  0  0  0  0  0  0  0
    1.8002   -0.4478   -1.5327 C   0  0  0  0  0  0  0  0  0  0  0  0
   -1.7681   -1.4077   -1.1969 C   0  0  0  0  0  0  0  0  0  0  0  0
   -0.3955    2.5733    0.2964 C   0  0  0  0  0  0  0  0  0  0  0  0
   -0.1086   -0.3160    2.3801 C   0  0  0  0  0  0  0  0  0  0  0  0
    0.8843   -2.0859    1.1730 C   0  0  0  0  0  0  0  0  0  0  0  0
   -1.1143   -0.1042    0.3182 C   0  0  0  0  0  0  0  0  0  0  0  0
   -0.5137   -0.2463    0.9336 C   0  0  0  0  0  0  0  0  0  0  0  0
   -1.5034    1.7626    0.4305 C   0  0  0  0  0  0  0  0  0  0  0  0
   -1.5965   -1.2537    0.4128 C   0  0  0  0  0  0  0  0  0  0  0  0
   -0.8351   -1.9855   -0.8274 C   0  0  0  0  0  0  0  0  0  0  0  0
   -0.2650   -0.0438   -3.0874 C   0  0  0  0  0  0  0  0  0  0  0  0
   -2.1889   -0.5844    0.7851 C   0  0  0  0  0  0  0  0  0  0  0  0
   -0.8151   -2.9957    1.5762 C   0  0  0  0  0  0  0  0  0  0  0  0
   -0.3799    1.8708    0.3416 C   0  0  0  0  0  0  0  0  0  0  0  0
   -0.4137   -0.9275    2.1663 C   0  0  0  0  0  0  0  0  0  0  0  0
    1.4385    0.3833   -0.8097 C   0  0  0  0  0  0  0  0  0  0  0  0
    0.1920   -1.2862   -1.1187 C   0  0  0  0  0  0  0  0  0  0  0  0
    2.6000    0.3121   -0.3992 C   0  0  0  0  0  0  0  0  0  0  0  0
    1.4256   -0.3456   -1.9641 C   0  0  0  0  0  0  0  0  0  0  0  0
M  END
$$$$

 Created by Python create_sdf_string function

 28 25  0  0  0  0  0  0  0  0999 V2000
    4.1362   -9.5442   23.9185 O   0  0  0  0  0  0  0  0  0  0  0  0
    2.6293   -8.1129   21.2668 F   0  0  0  0  0  0  0  0  0  0  0  0
    3.9978   -7.4772   21.2232 P   0  0  0  0  0  0  0  0  0  0  0  0
    3.1222   -7.7277   21.9058 C   0  0  0  0  0  0  0  0  0  0  0  0
    3.5969   -7.5908   21.9746 Cl  0  0  0  0  0  0  0  0  0  0  0  0
    3.7963   -7.1433   21.9569 C   0  0  0  0  0  0  0  0  0  0  0  0
    4.9712   -6.5780   23.1780 C   0  0  0  0  0  0  0  0  0  0  0  0
    4.9935   -9.3901   23.5347 O   0  0  0  0  0  0  0  0  0  0  0  0
    3.3756   -7.7463   21.5596 Br  0  0  0  0  0  0  0  0  0  0  0  0
    3.2917   -9.7407   21.2471 Cl  0  0  0  0  0  0  0  0  0  0  0  0
    3.9307   -8.1569   22.0476 N   0  0  0  0  0  0  0  0  0  0  0  0
    2.3077   -7.9708   21.7570 He  0  0  0  0  0  0  0  0  0  0  0  0
    2.4871  -10.2883   22.2791 He  0  0  0  0  0  0  0  0  0  0  0  0
    3.5248   -8.7224   21.7241 He  0  0  0  0  0  0  0  0  0  0  0  0
    3.4067   -7.5166   22.0926 He  0  0  0  0  0  0  0  0  0  0  0  0
    3.7480   -9.3295   22.0729 He  0  0  0  0  0  0  0  0  0  0  0  0
    5.2108   -8.0772   22.6750 He  0  0  0  0  0  0  0  0  0  0  0  0
    3.7328   -9.0089   22.7982 He  0  0  0  0  0  0  0  0  0  0  0  0
    5.3485   -8.6593   22.7548 He  0  0  0  0  0  0  0  0  0  0  0  0
    2.9221   -7.9977   21.9352 He  0  0  0  0  0  0  0  0  0  0  0  0
    5.7584   -8.0105   20.7568 He  0  0  0  0  0  0  0  0  0  0  0  0
    4.1688   -9.6693   22.5723 He  0  0  0  0  0  0  0  0  0  0  0  0
    4.4778   -7.4032   23.6794 He  0  0  0  0  0  0  0  0  0  0  0  0
    2.4931   -7.1279   22.8642 He  0  0  0  0  0  0  0  0  0  0  0  0
    3.9104   -6.6417   22.0730 He  0  0  0  0  0  0  0  0  0  0  0  0
    4.2501   -7.3474   23.5801 He  0  0  0  0  0  0  0  0  0  0  0  0
    5.0549   -8.5988   24.2764 He  0  0  0  0  0  0  0  0  0  0  0  0
    2.7130   -8.1564   22.4804 He  0  0  0  0  0  0  0  0  0  0  0  0
  1  2  3  0
  1  3  4  0
  1  4  2  0
  1  7  4  0
  1  8  4  0
  1 11  3  0
  2  5  1  0
  2  6  4  0
  2 11  3  0
  3  6  4  0
  3  7  1  0
  3  8  3  0
  3  9  2  0
  3 10  4  0
  4  6  3  0
  4  8  1  0
  4  9  4  0
  5  8  1  0
  6 11  2  0
  7  9  2  0
  7 10  4  0
  8  9  2  0
  8 10  1  0
  9 11  2  0
 10 11  1  0
M  END
$$$$

 Created by Python create_sdf_string function

 28  0  0  0  0  0  0  0  0  0999 V2000
    1.1149   -8.1457   21.2499 C   0  0  0  0  0  0  0  0  0  0  0  0
    4.1853   -8.4194   25.3727 C   0  0  0  0  0  0  0  0  0  0  0  0
    1.8382   -9.8989   21.5323 C   0  0  0  0  0  0  0  0  0  0  0  0
    1.6363   -8.5649   20.2361 C   0  0  0  0  0  0  0  0  0  0  0  0
    3.1253   -9.2127   20.6036 C   0  0  0  0  0  0  0  0  0  0  0  0
    3.3336   -7.0172   22.2883 C   0  0  0  0  0  0  0  0  0  0  0  0
    3.2564   -9.4910   21.0761 C   0  0  0  0  0  0  0  0  0  0  0  0
    4.6192   -7.6989   20.0698 C   0  0  0  0  0  0  0  0  0  0  0  0
    5.5649   -8.0014   23.1203 C   0  0  0  0  0  0  0  0  0  0  0  0
    2.5591   -7.5930   21.6082 C   0  0  0  0  0  0  0  0  0  0  0  0
    3.3716   -8.6401   23.4273 C   0  0  0  0  0  0  0  0  0  0  0  0
    5.8335   -8.2668   22.7073 C   0  0  0  0  0  0  0  0  0  0  0  0
    1.8750   -8.0927   21.5227 C   0  0  0  0  0  0  0  0  0  0  0  0
    5.8319   -8.0735   19.9921 C   0  0  0  0  0  0  0  0  0  0  0  0
    3.7626   -9.6444   22.2210 C   0  0  0  0  0  0  0  0  0  0  0  0
    3.7608   -7.1868   21.7626 C   0  0  0  0  0  0  0  0  0  0  0  0
    4.6561   -7.2671   25.3982 C   0  0  0  0  0  0  0  0  0  0  0  0
    3.9398   -6.7654   21.8868 C   0  0  0  0  0  0  0  0  0  0  0  0
    2.4042   -6.9901   23.7492 C   0  0  0  0  0  0  0  0  0  0  0  0
    4.7751   -6.7367   24.2107 C   0  0  0  0  0  0  0  0  0  0  0  0
    3.9443   -6.2578   22.3462 C   0  0  0  0  0  0  0  0  0  0  0  0
    5.1535   -8.4315   24.9176 C   0  0  0  0  0  0  0  0  0  0  0  0
    3.2138   -7.7715   20.6567 C   0  0  0  0  0  0  0  0  0  0  0  0
    2.4872   -9.9401   20.0794 C   0  0  0  0  0  0  0  0  0  0  0  0
    4.3668   -7.2858   25.2899 C   0  0  0  0  0  0  0  0  0  0  0  0
    5.2075   -7.9197   25.6900 C   0  0  0  0  0  0  0  0  0  0  0  0
    1.8364   -8.2474   22.8320 C   0  0  0  0  0  0  0  0  0  0  0  0
    4.2942   -8.0668   21.5452 C   0  0  0  0  0  0  0  0  0  0  0  0
M  END
$$$$

 Created by Python create_sdf_string function

 28 33  0  0  0  0  0  0  0  0999 V2000
    4.8350   -9.2154   25.5159 F   0  0  0  0  0  0  0  0  0  0  0  0
    2.3938   -7.1783   19.8337 S   0  0  0  0  0  0  0  0  0  0  0  0
    3.3064   -8.1029   21.0600 C   0  0  0  0  0  0  0  0  0  0  0  0
    6.2554   -8.4666   19.9208 Cl  0  0  0  0  0  0  0  0  0  0  0  0
    4.3921   -8.5086   24.5044 O   0  0  0  0  0  0  0  0  0  0  0  0
    2.8894   -8.0316   23.5559 O   0  0  0  0  0  0  0  0  0  0  0  0
    4.6499   -6.9254   21.2463 F   0  0  0  0  0  0  0  0  0  0  0  0
    3.1691   -7.1045   24.2960 Se  0  0  0  0  0  0  0  0  0  0  0  0
    4.1644   -5.8305   24.8852 C   0  0  0  0  0  0  0  0  0  0  0  0
    5.8978  -10.7070   23.8409 N   0  0  0  0  0  0  0  0  0  0  0  0
    2.9708   -7.5800   19.2277 O   0  0  0  0  0  0  0  0  0  0  0  0
    3.6413   -8.6093   19.8878 Cl  0  0  0  0  0  0  0  0  0  0  0  0
    3.0647   -6.5015   24.2410 N   0  0  0  0  0  0  0  0  0  0  0  0
    5.5842   -8.2620   24.6335 O   0  0  0  0  0  0  0  0  0  0  0  0
    0.3601   -6.9490   21.9326 He  0  0  0  0  0  0  0  0  0  0  0  0
    0.0790   -9.6180   20.9331 He  0  0  0  0  0  0  0  0  0  0  0  0
    3.1578   -7.1678   22.9665 He  0  0  0  0  0  0  0  0  0  0  0  0
    3.5416   -8.3315   19.6298 He  0  0  0  0  0  0  0  0  0  0  0  0
    2.7995   -7.9279   21.7337 He  0  0  0  0  0  0  0  0  0  0  0  0
    6.6113   -5.3466   22.3306 He  0  0  0  0  0  0  0  0  0  0  0  0
    1.6596   -8.9546   20.6112 He  0  0  0  0  0  0  0  0  0  0  0  0
    3.4129   -8.6021   22.1713 He  0  0  0  0  0  0  0  0  0  0  0  0
    5.5890   -8.4363   23.2873 He  0  0  0  0  0  0  0  0  0  0  0  0
    3.3401   -7.7981   26.3221 He  0  0  0  0  0  0  0  0  0  0  0  0
    3.2413   -5.1854   22.2017 He  0  0  0  0  0  0  0  0  0  0  0  0
    4.5534   -6.5343   21.5736 He  0  0  0  0  0  0  0  0  0  0  0  0
    2.6132   -7.0769   22.6762 He  0  0  0  0  0  0  0  0  0  0  0  0
    3.4194   -8.7861   23.5363 He  0  0  0  0  0  0  0  0  0  0  0  0
  1  2  2  0
  1  3  3  0
  1  9  2  0
  1 13  4  0
  2  8  3  0
  2 13  1  0
  3  4  1  0
  3  5  4  0
  3  8  2  0
  3 10  1  0
  4  5  1  0
  4  6  2  0
  4 10  1  0
  4 11  3  0
  4 13  2  0
  5  7  1  0
  5  8  2  0
  5  9  1  0
  5 12  1  0
  5 14  1  0
  7  8  3  0
  7 11  4  0
  7 12  3  0
  7 14  3  0
  8 13  2  0
  9 10  4  0
  9 11  3  0
  9 14  4  0
 10 13  1  0
 11 12  4  0
 11 13  2  0
 12 13  2  0
 13 14  1  0
M  END
$$$$

 Created by Python create_sdf_string function

 28  0  0  0  0  0  0  0  0  0999 V2000
    0.7868   -7.6453   21.5588 C   0  0  0  0  0  0  0  0  0  0  0  0
    4.9800   -8.3062   26.2355 C   0  0  0  0  0  0  0  0  0  0  0  0
    0.7372   -9.3189   20.3248 C   0  0  0  0  0  0  0  0  0  0  0  0
    2.3035   -8.0185   19.7185 C   0  0  0  0  0  0  0  0  0  0  0  0
    3.2614   -8.3976   20.5499 C   0  0  0  0  0  0  0  0  0  0  0  0
    3.1154   -7.2078   23.2017 C   0  0  0  0  0  0  0  0  0  0  0  0
    3.5979   -8.6843   19.1005 C   0  0  0  0  0  0  0  0  0  0  0  0
    5.6298   -8.1375   19.6762 C   0  0  0  0  0  0  0  0  0  0  0  0
    4.6006   -7.8748   25.4549 C   0  0  0  0  0  0  0  0  0  0  0  0
    2.3424   -8.2844   21.2977 C   0  0  0  0  0  0  0  0  0  0  0  0
    2.6642   -7.8918   24.1412 C   0  0  0  0  0  0  0  0  0  0  0  0
    5.8910   -6.6909   22.0807 C   0  0  0  0  0  0  0  0  0  0  0  0
    1.5552   -9.2341   20.0445 C   0  0  0  0  0  0  0  0  0  0  0  0
    4.9700   -7.5015   20.9227 C   0  0  0  0  0  0  0  0  0  0  0  0
    3.1489   -8.4263   21.5498 C   0  0  0  0  0  0  0  0  0  0  0  0
    5.5395   -7.9339   23.3742 C   0  0  0  0  0  0  0  0  0  0  0  0
    3.4877   -7.4510   26.5849 C   0  0  0  0  0  0  0  0  0  0  0  0
    3.0732   -6.2792   22.4579 C   0  0  0  0  0  0  0  0  0  0  0  0
    3.1427   -6.9181   25.3848 C   0  0  0  0  0  0  0  0  0  0  0  0
    3.9635   -6.3393   25.9726 C   0  0  0  0  0  0  0  0  0  0  0  0
    4.8538   -7.1935   21.3929 C   0  0  0  0  0  0  0  0  0  0  0  0
    5.7090   -8.5953   24.3860 C   0  0  0  0  0  0  0  0  0  0  0  0
    3.0870   -8.3498   18.8553 C   0  0  0  0  0  0  0  0  0  0  0  0
    3.6808   -8.7754   19.2693 C   0  0  0  0  0  0  0  0  0  0  0  0
    2.9488   -6.6079   25.2862 C   0  0  0  0  0  0  0  0  0  0  0  0
    5.3257   -7.8498   25.3858 C   0  0  0  0  0  0  0  0  0  0  0  0
    2.4232   -7.3260   22.5353 C   0  0  0  0  0  0  0  0  0  0  0  0
    3.3343   -8.2659   23.9320 C   0  0  0  0  0  0  0  0  0  0  0  0
M  END
$$$$

 Created by Python create_sdf_string function

 28 23  0  0  0  0  0  0  0  0999 V2000
    1.1463   -6.4966   22.2132 C   0  0  0  0  0  0  0  0  0  0  0  0
    4.7487   -7.0597   26.5877 F   0  0  0  0  0  0  0  0  0  0  0  0
    0.7412   -9.3621   21.4692 Cl  0  0  0  0  0  0  0  0  0  0  0  0
    2.1187   -7.5482   23.1273 F   0  0  0  0  0  0  0  0  0  0  0  0
    3.9931   -7.6110   19.6507 O   0  0  0  0  0  0  0  0  0  0  0  0
    3.5083   -8.5015   23.7926 P   0  0  0  0  0  0  0  0  0  0  0  0
    4.5148   -7.6270   21.9694 F   0  0  0  0  0  0  0  0  0  0  0  0
    1.7675   -5.7018   25.3473 F   0  0  0  0  0  0  0  0  0  0  0  0
    3.7909   -5.4723   21.7416 O   0  0  0  0  0  0  0  0  0  0  0  0
    2.6451   -5.9414   27.1994 O   0  0  0  0  0  0  0  0  0  0  0  0
    3.7527   -8.4581   19.4204 N   0  0  0  0  0  0  0  0  0  0  0  0
    0.3229   -6.9298   23.2743 F   0  0  0  0  0  0  0  0  0  0  0  0
    2.7908   -7.2433   19.9388 He  0  0  0  0  0  0  0  0  0  0  0  0
    3.2704   -8.0496   19.6513 He  0  0  0  0  0  0  0  0  0  0  0  0
    3.5807   -9.8539   19.6888 He  0  0  0  0  0  0  0  0  0  0  0  0
    3.8168   -8.8253   23.0448 He  0  0  0  0  0  0  0  0  0  0  0  0
    2.1626   -8.1563   21.4534 He  0  0  0  0  0  0  0  0  0  0  0  0
    3.6996   -8.2134   22.0981 He  0  0  0  0  0  0  0  0  0  0  0  0
    4.9409   -6.2593   22.8486 He  0  0  0  0  0  0  0  0  0  0  0  0
    3.2287   -8.1974   20.8634 He  0  0  0  0  0  0  0  0  0  0  0  0
    7.1081   -9.0029   23.4813 He  0  0  0  0  0  0  0  0  0  0  0  0
    4.2326   -6.3189   26.4364 He  0  0  0  0  0  0  0  0  0  0  0  0
    4.7965   -5.1464   20.5521 He  0  0  0  0  0  0  0  0  0  0  0  0
    4.5156   -8.7119   25.3620 He  0  0  0  0  0  0  0  0  0  0  0  0
    2.9355   -6.4970   19.2662 He  0  0  0  0  0  0  0  0  0  0  0  0
    2.8254   -7.3793   25.8205 He  0  0  0  0  0  0  0  0  0  0  0  0
    5.0177   -9.1858   24.5888 He  0  0  0  0  0  0  0  0  0  0  0  0
    3.0650   -8.7684   24.4232 He  0  0  0  0  0  0  0  0  0  0  0  0
  1  2  1  0
  1  3  4  0
  1  4  4  0
  1  8  1  0
  1 11  3  0
  2  4  1  0
  2  8  2  0
  2 11  4  0
  3  6  2  0
  3  8  1  0
  4  8  2  0
  4  9  2  0
  4 10  2  0
  5 11  1  0
  5 12  2  0
  6 12  1  0
  7  8  2  0
  8  9  1  0
  8 10  4  0
  8 12  4  0
  9 11  4  0
 10 11  1  0
 11 12  2  0
M  END
$$$$

 Created by Python create_sdf_string function

 28  1  0  0  0  0  0  0  0  0999 V2000
    1.2455   -7.1914   22.3927 C   0  0  0  0  0  0  0  0  0  0  0  0
    4.6237   -6.9500   26.7941 C   0  0  0  0  0  0  0  0  0  0  0  0
    1.1023   -8.9339   21.0972 C   0  0  0  0  0  0  0  0  0  0  0  0
    2.8550   -7.6413   19.6133 C   0  0  0  0  0  0  0  0  0  0  0  0
    3.3675   -8.3013   19.1873 C   0  0  0  0  0  0  0  0  0  0  0  0
    1.7720   -7.5598   23.3031 C   0  0  0  0  0  0  0  0  0  0  0  0
    3.0317   -9.2028   19.2984 C   0  0  0  0  0  0  0  0  0  0  0  0
    4.3652   -7.9602   19.1717 C   0  0  0  0  0  0  0  0  0  0  0  0
    3.8649   -8.1061   23.2343 C   0  0  0  0  0  0  0  0  0  0  0  0
    1.8329   -8.1961   21.4565 C   0  0  0  0  0  0  0  0  0  0  0  0
    3.5491   -7.8419   24.6112 C   0  0  0  0  0  0  0  0  0  0  0  0
    4.5964   -7.7019   21.7999 C   0  0  0  0  0  0  0  0  0  0  0  0
    3.8299   -7.9913   21.7740 C   0  0  0  0  0  0  0  0  0  0  0  0
    4.5825   -7.1144   23.0245 C   0  0  0  0  0  0  0  0  0  0  0  0
    3.2368   -8.2411   20.5175 C   0  0  0  0  0  0  0  0  0  0  0  0
    5.7854   -8.0964   23.9116 C   0  0  0  0  0  0  0  0  0  0  0  0
    1.7737   -6.1336   25.9543 C   0  0  0  0  0  0  0  0  0  0  0  0
    3.6856   -6.5334   21.7237 C   0  0  0  0  0  0  0  0  0  0  0  0
    2.6058   -6.1539   27.1598 C   0  0  0  0  0  0  0  0  0  0  0  0
    3.9637   -6.5164   26.8661 C   0  0  0  0  0  0  0  0  0  0  0  0
    4.6949   -6.6349   20.6097 C   0  0  0  0  0  0  0  0  0  0  0  0
    4.6978   -7.8872   26.0162 C   0  0  0  0  0  0  0  0  0  0  0  0
    3.7042   -8.5769   18.8551 C   0  0  0  0  0  0  0  0  0  0  0  0
    2.8536   -7.2419   19.3277 C   0  0  0  0  0  0  0  0  0  0  0  0
    2.6695   -7.0271   26.3081 C   0  0  0  0  0  0  0  0  0  0  0  0
    5.1193   -8.0165   25.3485 C   0  0  0  0  0  0  0  0  0  0  0  0
    0.8366   -7.1702   23.1005 C   0  0  0  0  0  0  0  0  0  0  0  0
    2.8755   -8.0543   25.3453 C   0  0  0  0  0  0  0  0  0  0  0  0
  2 20  1  0
M  END
$$$$

 Created by Python create_sdf_string function

 28 66  0  0  0  0  0  0  0  0999 V2000
    1.0218   -7.9053   22.6961 P   0  0  0  0  0  0  0  0  0  0  0  0
    2.8952   -6.8428   27.9013 N   0  0  0  0  0  0  0  0  0  0  0  0
    3.5605   -8.4211   19.1785 C   0  0  0  0  0  0  0  0  0  0  0  0
    3.0829   -7.5550   18.4039 O   0  0  0  0  0  0  0  0  0  0  0  0
    2.1729   -6.5860   20.9235 Se  0  0  0  0  0  0  0  0  0  0  0  0
    2.3865   -6.7961   23.8849 O   0  0  0  0  0  0  0  0  0  0  0  0
    1.3833   -7.7293   20.8613 S   0  0  0  0  0  0  0  0  0  0  0  0
    4.3722   -7.8063   20.5574 F   0  0  0  0  0  0  0  0  0  0  0  0
    3.4290   -9.6739   20.5950 Br  0  0  0  0  0  0  0  0  0  0  0  0
    6.0920   -6.0083   23.6374 C   0  0  0  0  0  0  0  0  0  0  0  0
    3.7541   -7.9521   19.9884 C   0  0  0  0  0  0  0  0  0  0  0  0
    4.1897   -5.5177   26.4297 N   0  0  0  0  0  0  0  0  0  0  0  0
    3.1989   -7.0639   22.5603 N   0  0  0  0  0  0  0  0  0  0  0  0
    1.1758   -7.3006   27.5700 O   0  0  0  0  0  0  0  0  0  0  0  0
    3.2950   -6.4538   26.6594 N   0  0  0  0  0  0  0  0  0  0  0  0
   -0.3120   -6.5481   21.0624 O   0  0  0  0  0  0  0  0  0  0  0  0
    2.7526   -7.9981   26.8071 N   0  0  0  0  0  0  0  0  0  0  0  0
    1.5401   -9.2602   19.1731 He  0  0  0  0  0  0  0  0  0  0  0  0
    2.6680   -7.6080   20.0250 He  0  0  0  0  0  0  0  0  0  0  0  0
    1.5751   -8.5971   23.9672 He  0  0  0  0  0  0  0  0  0  0  0  0
    4.3776   -9.0288   24.8323 He  0  0  0  0  0  0  0  0  0  0  0  0
    4.2606  -10.1195   23.4209 He  0  0  0  0  0  0  0  0  0  0  0  0
    3.4307   -6.7865   24.8660 He  0  0  0  0  0  0  0  0  0  0  0  0
    6.0415   -5.7182   20.9932 He  0  0  0  0  0  0  0  0  0  0  0  0
    5.4770   -9.0412   25.4694 He  0  0  0  0  0  0  0  0  0  0  0  0
    3.3532   -8.7726   19.6778 He  0  0  0  0  0  0  0  0  0  0  0  0
    2.7935   -7.0142   17.7893 He  0  0  0  0  0  0  0  0  0  0  0  0
    4.8322   -7.5106   24.1654 He  0  0  0  0  0  0  0  0  0  0  0  0
  1  2  2  0
  1  5  4  0
  1  6  2  0
  1 10  2  0
  1 11  2  0
  1 12  1  0
  1 13  4  0
  1 15  1  0
  2  8  4  0
  2  9  2  0
  2 10  3  0
  2 12  1  0
  2 15  2  0
  2 17  3  0
  3  4  1  0
  3  5  2  0
  3  8  4  0
  3 12  2  0
  3 13  1  0
  3 14  2  0
  3 15  1  0
  3 17  3  0
  4  5  4  0
  4  6  4  0
  4  7  2  0
  4  8  2  0
  4 11  1  0
  4 12  3  0
  4 13  3  0
  4 17  1  0
  5  6  1  0
  5 11  1  0
  5 12  1  0
  5 13  3  0
  5 14  3  0
  6  7  1  0
  6  8  4  0
  6 11  3  0
  6 12  2  0
  6 13  4  0
  6 15  3  0
  6 16  4  0
  7  8  1  0
  7 11  1  0
  7 14  1  0
  7 15  1  0
  7 16  2  0
  7 17  1  0
  8  9  1  0
  8 11  1  0
  8 13  4  0
  9 10  4  0
  9 16  4  0
 10 14  3  0
 10 15  1  0
 10 17  4  0
 11 14  3  0
 11 16  1  0
 11 17  4  0
 12 13  2  0
 12 15  2  0
 12 16  2  0
 12 17  2  0
 13 15  3  0
 14 15  3  0
 14 17  1  0
M  END
$$$$

 Created by Python create_sdf_string function

 28  0  0  0  0  0  0  0  0  0999 V2000
    1.1812   -7.8563   22.0474 C   0  0  0  0  0  0  0  0  0  0  0  0
    2.7214   -6.6476   27.6835 C   0  0  0  0  0  0  0  0  0  0  0  0
    1.1669   -8.8261   19.0513 C   0  0  0  0  0  0  0  0  0  0  0  0
    3.5908   -8.6508   18.5900 C   0  0  0  0  0  0  0  0  0  0  0  0
    2.3936   -7.9581   19.7385 C   0  0  0  0  0  0  0  0  0  0  0  0
    1.7706   -8.3621   24.4748 C   0  0  0  0  0  0  0  0  0  0  0  0
    2.9128   -8.0982   17.7937 C   0  0  0  0  0  0  0  0  0  0  0  0
    1.9461   -7.4171   20.7594 C   0  0  0  0  0  0  0  0  0  0  0  0
    2.6705   -7.0825   24.3510 C   0  0  0  0  0  0  0  0  0  0  0  0
    1.1523   -8.0015   20.5071 C   0  0  0  0  0  0  0  0  0  0  0  0
    4.3332   -7.9373   25.5324 C   0  0  0  0  0  0  0  0  0  0  0  0
    4.3083   -8.0828   20.3784 C   0  0  0  0  0  0  0  0  0  0  0  0
    3.0412   -8.8704   19.9994 C   0  0  0  0  0  0  0  0  0  0  0  0
    5.1828   -7.0573   24.4019 C   0  0  0  0  0  0  0  0  0  0  0  0
    3.8640   -8.2029   19.7238 C   0  0  0  0  0  0  0  0  0  0  0  0
    3.9498   -8.4445   23.2818 C   0  0  0  0  0  0  0  0  0  0  0  0
    3.9665   -5.9837   26.9518 C   0  0  0  0  0  0  0  0  0  0  0  0
    3.2830   -7.4798   22.4898 C   0  0  0  0  0  0  0  0  0  0  0  0
    1.5237   -7.1543   27.4745 C   0  0  0  0  0  0  0  0  0  0  0  0
    3.5291   -7.0912   25.5250 C   0  0  0  0  0  0  0  0  0  0  0  0
    5.0223   -7.3921   20.9838 C   0  0  0  0  0  0  0  0  0  0  0  0
    5.1358   -7.8369   25.9861 C   0  0  0  0  0  0  0  0  0  0  0  0
    3.2658   -8.7418   18.9379 C   0  0  0  0  0  0  0  0  0  0  0  0
    2.4952   -7.7872   17.6412 C   0  0  0  0  0  0  0  0  0  0  0  0
    3.1607   -6.4060   27.0156 C   0  0  0  0  0  0  0  0  0  0  0  0
    4.6786   -7.5243   24.5080 C   0  0  0  0  0  0  0  0  0  0  0  0
    0.0613   -7.4460   20.5061 C   0  0  0  0  0  0  0  0  0  0  0  0
    2.4722   -7.6680   26.8973 C   0  0  0  0  0  0  0  0  0  0  0  0
M  END
$$$$

 Created by Python create_sdf_string function

 28 68  0  0  0  0  0  0  0  0999 V2000
    1.0283   -8.1448   21.3191 C   0  0  0  0  0  0  0  0  0  0  0  0
    2.1915   -5.3859   27.0955 S   0  0  0  0  0  0  0  0  0  0  0  0
    1.3741  -10.1754   19.1093 C   0  0  0  0  0  0  0  0  0  0  0  0
    1.6677   -8.0602   20.2887 F   0  0  0  0  0  0  0  0  0  0  0  0
    4.2787   -8.0519   18.8028 Cl  0  0  0  0  0  0  0  0  0  0  0  0
    2.1020   -6.8757   19.9254 N   0  0  0  0  0  0  0  0  0  0  0  0
    1.0694   -8.1672   20.7692 C   0  0  0  0  0  0  0  0  0  0  0  0
    4.4146   -8.7897   25.2588 C   0  0  0  0  0  0  0  0  0  0  0  0
    2.4987   -8.7003   21.2386 O   0  0  0  0  0  0  0  0  0  0  0  0
    3.6710   -8.0225   20.4115 F   0  0  0  0  0  0  0  0  0  0  0  0
    4.4944   -7.9420   23.7142 F   0  0  0  0  0  0  0  0  0  0  0  0
    3.1169   -6.8900   27.5282 C   0  0  0  0  0  0  0  0  0  0  0  0
    4.4007   -5.4226   20.9928 N   0  0  0  0  0  0  0  0  0  0  0  0
    0.9773   -5.6669   26.1099 F   0  0  0  0  0  0  0  0  0  0  0  0
    4.0074   -7.9896   20.1084 F   0  0  0  0  0  0  0  0  0  0  0  0
    1.5256   -5.8466   27.5027 C   0  0  0  0  0  0  0  0  0  0  0  0
    4.1051   -6.6262   24.1289 F   0  0  0  0  0  0  0  0  0  0  0  0
    1.6509   -8.1011   19.5092 P   0  0  0  0  0  0  0  0  0  0  0  0
    3.2051   -8.1872   26.4539 C   0  0  0  0  0  0  0  0  0  0  0  0
    4.0953   -9.5730   19.4133 He  0  0  0  0  0  0  0  0  0  0  0  0
    1.7675   -9.0406   25.0627 He  0  0  0  0  0  0  0  0  0  0  0  0
    4.1275   -6.6777   24.5521 He  0  0  0  0  0  0  0  0  0  0  0  0
    6.6676   -9.5751   20.6689 He  0  0  0  0  0  0  0  0  0  0  0  0
    5.2842   -7.6360   24.1436 He  0  0  0  0  0  0  0  0  0  0  0  0
    2.7328   -8.1313   27.3326 He  0  0  0  0  0  0  0  0  0  0  0  0
    5.8785   -6.6356   20.8257 He  0  0  0  0  0  0  0  0  0  0  0  0
    5.3791   -8.9010   25.7184 He  0  0  0  0  0  0  0  0  0  0  0  0
    2.3162   -8.8707   18.3390 He  0  0  0  0  0  0  0  0  0  0  0  0
  1  4  1  0
  1  7  4  0
  1  8  1  0
  1 10  3  0
  1 15  1  0
  1 17  2  0
  1 18  3  0
  2  4  1  0
  2  5  3  0
  2  6  1  0
  2  7  1  0
  2 12  1  0
  2 17  1  0
  3  5  4  0
  3  6  4  0
  3  7  2  0
  3  8  2  0
  3  9  3  0
  3 12  4  0
  3 16  4  0
  3 18  3  0
  3 19  4  0
  4  7  4  0
  4  8  4  0
  4 11  2  0
  4 12  2  0
  4 14  1  0
  4 16  2  0
  4 17  2  0
  5  9  2  0
  5 12  4  0
  5 13  2  0
  5 15  3  0
  5 16  3  0
  6  7  3  0
  6 10  4  0
  6 11  1  0
  6 14  3  0
  6 16  1  0
  6 17  3  0
  7 10  4  0
  7 12  2  0
  7 14  3  0
  7 19  3  0
  8 11  1  0
  8 17  4  0
  9 10  4  0
  9 12  2  0
  9 14  4  0
  9 15  3  0
  9 18  2  0
 10 12  4  0
 10 13  1  0
 10 18  3  0
 11 12  4  0
 11 15  1  0
 11 19  4  0
 12 16  2  0
 12 18  1  0
 12 19  2  0
 13 15  3  0
 13 16  3  0
 13 18  1  0
 14 17  2  0
 15 16  4  0
 15 18  4  0
 16 17  3  0
 17 18  3  0
M  END
$$$$

 Created by Python create_sdf_string function

 28  2  0  0  0  0  0  0  0  0999 V2000
    1.1828   -8.6320   21.0089 C   0  0  0  0  0  0  0  0  0  0  0  0
    2.1146   -5.4817   27.1275 C   0  0  0  0  0  0  0  0  0  0  0  0
    1.0001   -9.9087   18.8456 C   0  0  0  0  0  0  0  0  0  0  0  0
    4.1228   -8.9609   18.8191 C   0  0  0  0  0  0  0  0  0  0  0  0
    1.3796   -8.7354   19.9878 C   0  0  0  0  0  0  0  0  0  0  0  0
    2.1009   -8.4942   25.9396 C   0  0  0  0  0  0  0  0  0  0  0  0
    4.5167   -8.5770   18.4306 C   0  0  0  0  0  0  0  0  0  0  0  0
    2.0547   -8.1063   19.6652 C   0  0  0  0  0  0  0  0  0  0  0  0
    3.8778   -6.9917   25.4579 C   0  0  0  0  0  0  0  0  0  0  0  0
    1.0404   -8.7172   20.4265 C   0  0  0  0  0  0  0  0  0  0  0  0
    4.4720   -7.8358   25.9279 C   0  0  0  0  0  0  0  0  0  0  0  0
    5.8078   -8.4297   19.9622 C   0  0  0  0  0  0  0  0  0  0  0  0
    2.4090   -8.6470   20.8889 C   0  0  0  0  0  0  0  0  0  0  0  0
    4.9527   -7.6596   24.5677 C   0  0  0  0  0  0  0  0  0  0  0  0
    3.9634   -8.2734   20.1790 C   0  0  0  0  0  0  0  0  0  0  0  0
    4.7309   -7.6665   24.0902 C   0  0  0  0  0  0  0  0  0  0  0  0
    2.7827   -6.5889   27.5289 C   0  0  0  0  0  0  0  0  0  0  0  0
    4.5104   -7.2815   21.3517 C   0  0  0  0  0  0  0  0  0  0  0  0
    1.3182   -5.7815   26.7149 C   0  0  0  0  0  0  0  0  0  0  0  0
    2.4176   -7.7487   27.5105 C   0  0  0  0  0  0  0  0  0  0  0  0
    5.2947   -7.8712   20.6315 C   0  0  0  0  0  0  0  0  0  0  0  0
    5.2329   -7.9113   26.2425 C   0  0  0  0  0  0  0  0  0  0  0  0
    4.4713   -8.3544   19.6703 C   0  0  0  0  0  0  0  0  0  0  0  0
    2.1415   -9.2736   17.8464 C   0  0  0  0  0  0  0  0  0  0  0  0
    1.4983   -5.9381   27.5190 C   0  0  0  0  0  0  0  0  0  0  0  0
    3.9709   -7.0805   24.8684 C   0  0  0  0  0  0  0  0  0  0  0  0
    1.3926   -8.8770   18.9176 C   0  0  0  0  0  0  0  0  0  0  0  0
    3.0535   -7.7470   26.8614 C   0  0  0  0  0  0  0  0  0  0  0  0
 11 22  1  0
 19 25  1  0
M  END
$$$$

 Created by Python create_sdf_string function

 28 30  0  0  0  0  0  0  0  0999 V2000
    2.1414   -8.0905   20.5636 O   0  0  0  0  0  0  0  0  0  0  0  0
    2.5952   -6.1894   28.9217 F   0  0  0  0  0  0  0  0  0  0  0  0
    1.2640  -10.2284   19.5271 Cl  0  0  0  0  0  0  0  0  0  0  0  0
    3.4732  -10.2944   19.9610 S   0  0  0  0  0  0  0  0  0  0  0  0
    3.8079   -8.3267   17.9226 N   0  0  0  0  0  0  0  0  0  0  0  0
    4.6543   -8.3001   25.4896 C   0  0  0  0  0  0  0  0  0  0  0  0
    1.6914   -8.3894   20.2096 C   0  0  0  0  0  0  0  0  0  0  0  0
    5.1318   -5.1324   24.9037 C   0  0  0  0  0  0  0  0  0  0  0  0
    3.3567   -8.4253   26.4778 F   0  0  0  0  0  0  0  0  0  0  0  0
    4.8925   -6.7098   21.7736 C   0  0  0  0  0  0  0  0  0  0  0  0
    3.9159   -7.0466   19.0400 Cl  0  0  0  0  0  0  0  0  0  0  0  0
    4.3516   -7.7219   18.0203 F   0  0  0  0  0  0  0  0  0  0  0  0
    3.2921   -7.7510   25.0967 O   0  0  0  0  0  0  0  0  0  0  0  0
    3.5542   -8.9275   27.4525 B   0  0  0  0  0  0  0  0  0  0  0  0
    3.9757   -7.8557   18.8169 He  0  0  0  0  0  0  0  0  0  0  0  0
    3.2223   -7.8706   29.0884 He  0  0  0  0  0  0  0  0  0  0  0  0
    1.6718   -7.3142   19.5316 He  0  0  0  0  0  0  0  0  0  0  0  0
    2.4100   -5.4770   25.6170 He  0  0  0  0  0  0  0  0  0  0  0  0
   -0.7333   -9.2533   20.5600 He  0  0  0  0  0  0  0  0  0  0  0  0
    5.5822   -6.8147   18.9993 He  0  0  0  0  0  0  0  0  0  0  0  0
    2.8648   -8.9040   18.1178 He  0  0  0  0  0  0  0  0  0  0  0  0
    5.2800   -9.3619   24.0692 He  0  0  0  0  0  0  0  0  0  0  0  0
    2.1940   -6.1305   26.5757 He  0  0  0  0  0  0  0  0  0  0  0  0
    2.6878   -7.6526   27.9387 He  0  0  0  0  0  0  0  0  0  0  0  0
    5.5711   -7.9154   25.7256 He  0  0  0  0  0  0  0  0  0  0  0  0
    1.1275   -8.6412   18.7534 He  0  0  0  0  0  0  0  0  0  0  0  0
    2.5168   -3.9012   27.4141 He  0  0  0  0  0  0  0  0  0  0  0  0
    0.1786   -8.2194   18.2540 He  0  0  0  0  0  0  0  0  0  0  0  0
  1  6  2  0
  1  9  2  0
  1 14  2  0
  2  3  1  0
  2  6  3  0
  2 11  3  0
  2 12  4  0
  3  4  3  0
  3  5  3  0
  3  7  1  0
  3 12  3  0
  3 13  2  0
  3 14  1  0
  4  7  2  0
  4  9  1  0
  4 13  3  0
  5 10  1  0
  5 11  2  0
  5 13  1  0
  6 11  3  0
  6 12  4  0
  7 14  3  0
  8  9  4  0
  9 11  2  0
  9 12  4  0
 10 11  1  0
 10 12  1  0
 10 14  4  0
 12 13  3  0
 12 14  4  0
M  END
$$$$

 Created by Python create_sdf_string function

 28  1  0  0  0  0  0  0  0  0999 V2000
    2.4609   -8.7485   20.2096 C   0  0  0  0  0  0  0  0  0  0  0  0
    2.4704   -6.0483   28.6633 C   0  0  0  0  0  0  0  0  0  0  0  0
    0.8292  -10.1693   18.9167 C   0  0  0  0  0  0  0  0  0  0  0  0
    4.4916   -8.3984   18.2298 C   0  0  0  0  0  0  0  0  0  0  0  0
    2.8315   -9.5132   19.2297 C   0  0  0  0  0  0  0  0  0  0  0  0
    2.8477   -7.5605   28.8525 C   0  0  0  0  0  0  0  0  0  0  0  0
    3.8507   -8.6077   17.3979 C   0  0  0  0  0  0  0  0  0  0  0  0
    1.7466   -8.5006   18.8044 C   0  0  0  0  0  0  0  0  0  0  0  0
    2.4679   -5.6646   26.5503 C   0  0  0  0  0  0  0  0  0  0  0  0
   -0.3771   -9.4966   19.1409 C   0  0  0  0  0  0  0  0  0  0  0  0
    4.5477   -7.7275   25.9496 C   0  0  0  0  0  0  0  0  0  0  0  0
    5.6400   -7.8259   18.5806 C   0  0  0  0  0  0  0  0  0  0  0  0
    1.6117   -9.0948   19.4786 C   0  0  0  0  0  0  0  0  0  0  0  0
    4.5447   -6.0192   26.4143 C   0  0  0  0  0  0  0  0  0  0  0  0
    2.5332   -9.1778   17.5582 C   0  0  0  0  0  0  0  0  0  0  0  0
    4.9299   -7.7581   24.7918 C   0  0  0  0  0  0  0  0  0  0  0  0
    3.3663   -7.9587   26.9017 C   0  0  0  0  0  0  0  0  0  0  0  0
    4.6594   -7.8553   21.4275 C   0  0  0  0  0  0  0  0  0  0  0  0
    2.3340   -5.9589   27.0185 C   0  0  0  0  0  0  0  0  0  0  0  0
    2.6128   -7.2489   28.1300 C   0  0  0  0  0  0  0  0  0  0  0  0
    4.4387   -8.1402   18.6603 C   0  0  0  0  0  0  0  0  0  0  0  0
    5.1332   -7.6148   26.1981 C   0  0  0  0  0  0  0  0  0  0  0  0
    4.7972   -8.1446   17.6796 C   0  0  0  0  0  0  0  0  0  0  0  0
    0.7167   -9.2329   17.9159 C   0  0  0  0  0  0  0  0  0  0  0  0
    2.3895   -4.5662   27.4561 C   0  0  0  0  0  0  0  0  0  0  0  0
    3.6343   -7.2367   25.8203 C   0  0  0  0  0  0  0  0  0  0  0  0
   -0.0618   -8.9290   17.7620 C   0  0  0  0  0  0  0  0  0  0  0  0
    3.4654   -8.4350   27.6381 C   0  0  0  0  0  0  0  0  0  0  0  0
  9 19  1  0
M  END
$$$$

 Created by Python create_sdf_string function

 28 49  0  0  0  0  0  0  0  0999 V2000
    2.6485   -9.8500   19.7553 C   0  0  0  0  0  0  0  0  0  0  0  0
    2.0728   -7.2405   19.9887 C   0  0  0  0  0  0  0  0  0  0  0  0
    3.7425   -6.8287   28.0539 C   0  0  0  0  0  0  0  0  0  0  0  0
    4.5570   -9.3190   17.4140 C   0  0  0  0  0  0  0  0  0  0  0  0
    3.7328   -6.9485   18.9495 F   0  0  0  0  0  0  0  0  0  0  0  0
    1.0561   -4.1109   24.4533 O   0  0  0  0  0  0  0  0  0  0  0  0
   -0.2724   -9.3666   18.5393 F   0  0  0  0  0  0  0  0  0  0  0  0
    1.5516   -9.2184   19.2170 C   0  0  0  0  0  0  0  0  0  0  0  0
    2.2810   -9.5512   17.5850 O   0  0  0  0  0  0  0  0  0  0  0  0
    3.4407   -8.2698   26.4998 C   0  0  0  0  0  0  0  0  0  0  0  0
    5.6348   -7.9168   22.1172 C   0  0  0  0  0  0  0  0  0  0  0  0
    1.6510   -7.4444   28.3220 N   0  0  0  0  0  0  0  0  0  0  0  0
    3.2155  -10.5058   18.7028 C   0  0  0  0  0  0  0  0  0  0  0  0
   -0.0747  -10.3395   17.4140 S   0  0  0  0  0  0  0  0  0  0  0  0
    3.7219   -3.4235   28.0072 F   0  0  0  0  0  0  0  0  0  0  0  0
    3.4105   -6.6741   24.7005 C   0  0  0  0  0  0  0  0  0  0  0  0
    0.3004  -11.4886   18.0815 F   0  0  0  0  0  0  0  0  0  0  0  0
    5.2557   -8.3874   25.7614 O   0  0  0  0  0  0  0  0  0  0  0  0
    1.9622   -6.1265   27.7994 He  0  0  0  0  0  0  0  0  0  0  0  0
    1.2751  -11.2639   18.4869 He  0  0  0  0  0  0  0  0  0  0  0  0
    5.6017   -9.3922   19.8289 He  0  0  0  0  0  0  0  0  0  0  0  0
    5.8968   -7.2524   26.2886 He  0  0  0  0  0  0  0  0  0  0  0  0
    5.8085   -7.8981   18.5966 He  0  0  0  0  0  0  0  0  0  0  0  0
    4.0822   -5.4859   27.1818 He  0  0  0  0  0  0  0  0  0  0  0  0
    3.7164   -7.4915   25.2404 He  0  0  0  0  0  0  0  0  0  0  0  0
    2.5013   -6.2345   26.4410 He  0  0  0  0  0  0  0  0  0  0  0  0
    4.7665   -7.2275   25.7020 He  0  0  0  0  0  0  0  0  0  0  0  0
    3.1163  -10.2909   17.0735 He  0  0  0  0  0  0  0  0  0  0  0  0
  1  7  3  0
  1  8  1  0
  1 16  1  0
  1 18  1  0
  2  3  3  0
  2  7  2  0
  2 10  1  0
  2 11  1  0
  2 17  1  0
  2 18  3  0
  3  4  3  0
  3  6  2  0
  3  7  4  0
  3  8  2  0
  3 11  3  0
  3 14  1  0
  4  9  4  0
  4 11  2  0
  4 15  4  0
  5  8  4  0
  5 10  3  0
  5 11  1  0
  5 13  4  0
  5 14  4  0
  5 17  3  0
  6  8  1  0
  6 11  4  0
  6 14  2  0
  6 18  1  0
  7  8  2  0
  7 13  3  0
  7 14  3  0
  8 10  4  0
  8 15  3  0
  8 17  4  0
  8 18  1  0
 10 11  1  0
 10 12  4  0
 10 15  1  0
 11 16  1  0
 12 14  3  0
 12 15  3  0
 12 16  4  0
 13 14  3  0
 13 18  1  0
 14 16  3  0
 15 17  4  0
 15 18  3  0
 16 18  3  0
M  END
$$$$

 Created by Python create_sdf_string function

 28  2  0  0  0  0  0  0  0  0999 V2000
    2.6705  -10.0492   18.5561 C   0  0  0  0  0  0  0  0  0  0  0  0
    1.9597   -5.8768   27.7191 C   0  0  0  0  0  0  0  0  0  0  0  0
    0.7805  -10.9213   18.2309 C   0  0  0  0  0  0  0  0  0  0  0  0
    5.5256   -8.7345   19.0584 C   0  0  0  0  0  0  0  0  0  0  0  0
    3.2071   -8.6255   19.1442 C   0  0  0  0  0  0  0  0  0  0  0  0
    3.6082   -6.4063   27.8600 C   0  0  0  0  0  0  0  0  0  0  0  0
    4.8569   -9.2575   17.5132 C   0  0  0  0  0  0  0  0  0  0  0  0
    4.5226   -8.2907   18.2937 C   0  0  0  0  0  0  0  0  0  0  0  0
    1.5760   -4.6597   26.5732 C   0  0  0  0  0  0  0  0  0  0  0  0
   -0.2693   -9.7193   18.0980 C   0  0  0  0  0  0  0  0  0  0  0  0
    5.4968   -7.1757   26.7486 C   0  0  0  0  0  0  0  0  0  0  0  0
    5.8174   -8.2981   18.3831 C   0  0  0  0  0  0  0  0  0  0  0  0
    1.3719   -9.8349   18.3000 C   0  0  0  0  0  0  0  0  0  0  0  0
    3.8201   -5.3901   27.5228 C   0  0  0  0  0  0  0  0  0  0  0  0
    2.1770   -9.6431   17.2642 C   0  0  0  0  0  0  0  0  0  0  0  0
    3.8738   -7.2649   25.7440 C   0  0  0  0  0  0  0  0  0  0  0  0
    3.2455   -7.6662   26.7817 C   0  0  0  0  0  0  0  0  0  0  0  0
    4.9636   -8.0827   21.7206 C   0  0  0  0  0  0  0  0  0  0  0  0
    2.2927   -5.9528   26.9284 C   0  0  0  0  0  0  0  0  0  0  0  0
    1.8910   -7.0761   27.8816 C   0  0  0  0  0  0  0  0  0  0  0  0
    3.5034  -10.0240   18.0630 C   0  0  0  0  0  0  0  0  0  0  0  0
    4.7271   -7.1704   26.2022 C   0  0  0  0  0  0  0  0  0  0  0  0
    3.3098  -10.1584   17.1820 C   0  0  0  0  0  0  0  0  0  0  0  0
   -0.1717  -10.2464   17.6013 C   0  0  0  0  0  0  0  0  0  0  0  0
    3.3369   -4.2650   27.8610 C   0  0  0  0  0  0  0  0  0  0  0  0
    3.6002   -6.9880   25.6475 C   0  0  0  0  0  0  0  0  0  0  0  0
   -0.0591  -11.1438   18.2525 C   0  0  0  0  0  0  0  0  0  0  0  0
    5.1084   -7.7943   25.9394 C   0  0  0  0  0  0  0  0  0  0  0  0
  4 12  4  0
 14 25  1  0
M  END
$$$$

 Created by Python create_sdf_string function

 28 21  0  0  0  0  0  0  0  0999 V2000
   -0.9479   -9.9155   16.8486 C   0  0  0  0  0  0  0  0  0  0  0  0
    5.7231   -9.2092   18.8551 N   0  0  0  0  0  0  0  0  0  0  0  0
    4.1909   -6.2285   29.3111 I   0  0  0  0  0  0  0  0  0  0  0  0
    4.1788   -8.6217   17.7936 C   0  0  0  0  0  0  0  0  0  0  0  0
    3.4120   -4.9491   26.9432 C   0  0  0  0  0  0  0  0  0  0  0  0
    4.1872   -7.5092   27.1645 O   0  0  0  0  0  0  0  0  0  0  0  0
    3.8362   -9.1047   18.3201 F   0  0  0  0  0  0  0  0  0  0  0  0
    4.5544   -7.6143   25.6510 O   0  0  0  0  0  0  0  0  0  0  0  0
    4.2367   -9.9692   17.3655 I   0  0  0  0  0  0  0  0  0  0  0  0
    2.4309   -5.3291   27.5374 F   0  0  0  0  0  0  0  0  0  0  0  0
    3.2788   -7.0191   25.2511 P   0  0  0  0  0  0  0  0  0  0  0  0
    1.1427  -11.9079   19.4241 Cl  0  0  0  0  0  0  0  0  0  0  0  0
    3.3142  -10.8794   19.1170 He  0  0  0  0  0  0  0  0  0  0  0  0
    3.3795   -5.9732   26.2472 He  0  0  0  0  0  0  0  0  0  0  0  0
    3.6096   -7.1000   19.6384 He  0  0  0  0  0  0  0  0  0  0  0  0
    3.5955   -7.9637   18.8368 He  0  0  0  0  0  0  0  0  0  0  0  0
    1.1123   -5.9158   24.4362 He  0  0  0  0  0  0  0  0  0  0  0  0
    1.1469   -9.3152   18.9008 He  0  0  0  0  0  0  0  0  0  0  0  0
    4.3607   -8.1026   25.6729 He  0  0  0  0  0  0  0  0  0  0  0  0
    3.1854   -9.2718   18.7632 He  0  0  0  0  0  0  0  0  0  0  0  0
   -0.2980   -9.0262   17.8032 He  0  0  0  0  0  0  0  0  0  0  0  0
    1.2601   -9.7293   15.8546 He  0  0  0  0  0  0  0  0  0  0  0  0
    3.7661   -8.5200   24.5762 He  0  0  0  0  0  0  0  0  0  0  0  0
    5.2324   -7.9677   21.2120 He  0  0  0  0  0  0  0  0  0  0  0  0
    0.1158   -5.6579   26.0226 He  0  0  0  0  0  0  0  0  0  0  0  0
    1.9505   -6.3445   28.1821 He  0  0  0  0  0  0  0  0  0  0  0  0
    0.9747   -9.3157   16.7203 He  0  0  0  0  0  0  0  0  0  0  0  0
    5.3862   -6.9523   25.7679 He  0  0  0  0  0  0  0  0  0  0  0  0
  1  2  1  0
  1  4  1  0
  1  5  2  0
  1  6  3  0
  1 10  4  0
  2  7  2  0
  2  9  1  0
  3  8  1  0
  4  6  1  0
  4  9  3  0
  4 10  2  0
  5  6  3  0
  5  7  4  0
  5 12  1  0
  6  9  3  0
  6 10  3  0
  7  9  4  0
  7 11  3  0
  8  9  4  0
  9 10  1  0
 11 12  3  0
M  END
$$$$

 Created by Python create_sdf_string function

 28  3  0  0  0  0  0  0  0  0999 V2000
    2.6395  -10.5890   18.3776 C   0  0  0  0  0  0  0  0  0  0  0  0
    3.1083   -6.0614   27.0612 C   0  0  0  0  0  0  0  0  0  0  0  0
   -0.6071   -9.8204   17.0153 C   0  0  0  0  0  0  0  0  0  0  0  0
    5.7474   -8.7768   18.4197 C   0  0  0  0  0  0  0  0  0  0  0  0
    4.7799   -8.2681   19.0193 C   0  0  0  0  0  0  0  0  0  0  0  0
    3.9220   -6.1090   28.7566 C   0  0  0  0  0  0  0  0  0  0  0  0
    4.5488   -8.7779   17.5606 C   0  0  0  0  0  0  0  0  0  0  0  0
    4.3548   -8.4851   18.2245 C   0  0  0  0  0  0  0  0  0  0  0  0
    1.3731   -5.9382   26.2880 C   0  0  0  0  0  0  0  0  0  0  0  0
    0.7301  -10.2548   18.2485 C   0  0  0  0  0  0  0  0  0  0  0  0
    4.5275   -7.5418   26.0640 C   0  0  0  0  0  0  0  0  0  0  0  0
    2.8938   -9.7338   17.9259 C   0  0  0  0  0  0  0  0  0  0  0  0
   -0.3647   -9.4966   17.3948 C   0  0  0  0  0  0  0  0  0  0  0  0
    3.0477   -5.1894   27.4498 C   0  0  0  0  0  0  0  0  0  0  0  0
    1.0864   -9.4346   16.3554 C   0  0  0  0  0  0  0  0  0  0  0  0
    4.3088   -7.5593   25.3361 C   0  0  0  0  0  0  0  0  0  0  0  0
    4.3327   -7.2091   27.4600 C   0  0  0  0  0  0  0  0  0  0  0  0
    5.1724   -8.3841   20.4769 C   0  0  0  0  0  0  0  0  0  0  0  0
    0.5710   -5.5686   26.9538 C   0  0  0  0  0  0  0  0  0  0  0  0
    1.8932   -6.0748   28.2270 C   0  0  0  0  0  0  0  0  0  0  0  0
    4.1313   -9.3821   17.8768 C   0  0  0  0  0  0  0  0  0  0  0  0
    4.7681   -7.4208   26.1370 C   0  0  0  0  0  0  0  0  0  0  0  0
    4.3567   -9.9771   17.4574 C   0  0  0  0  0  0  0  0  0  0  0  0
    0.6975   -9.4184   16.6454 C   0  0  0  0  0  0  0  0  0  0  0  0
    2.0801   -5.3905   27.9075 C   0  0  0  0  0  0  0  0  0  0  0  0
    3.2137   -6.8677   26.0592 C   0  0  0  0  0  0  0  0  0  0  0  0
    0.7997  -11.0094   18.5951 C   0  0  0  0  0  0  0  0  0  0  0  0
    5.2523   -7.1319   26.6047 C   0  0  0  0  0  0  0  0  0  0  0  0
  3 13  4  0
 10 27  4  0
 15 24  4  0
M  END
$$$$

 Created by Python create_sdf_string function

 28 23  0  0  0  0  0  0  0  0999 V2000
    3.6193   -9.8058   18.7963 I   0  0  0  0  0  0  0  0  0  0  0  0
    3.2919   -6.4180   26.6558 N   0  0  0  0  0  0  0  0  0  0  0  0
    7.0818   -7.8108   19.6754 O   0  0  0  0  0  0  0  0  0  0  0  0
    5.0737   -9.0433   17.6806 C   0  0  0  0  0  0  0  0  0  0  0  0
    0.2483  -10.6537   17.7433 N   0  0  0  0  0  0  0  0  0  0  0  0
    3.4376   -7.8672   25.2599 C   0  0  0  0  0  0  0  0  0  0  0  0
    2.7798   -4.5040   27.7964 N   0  0  0  0  0  0  0  0  0  0  0  0
    3.5307   -6.8623   27.9677 Cl  0  0  0  0  0  0  0  0  0  0  0  0
    4.7089   -9.0150   22.1297 O   0  0  0  0  0  0  0  0  0  0  0  0
    4.9524  -10.9393   18.0659 F   0  0  0  0  0  0  0  0  0  0  0  0
    3.2759   -8.3048   26.2099 N   0  0  0  0  0  0  0  0  0  0  0  0
    1.8310   -9.9211   18.0220 C   0  0  0  0  0  0  0  0  0  0  0  0
    0.4609   -9.0835   16.7447 He  0  0  0  0  0  0  0  0  0  0  0  0
    4.2983   -9.0853   20.4226 He  0  0  0  0  0  0  0  0  0  0  0  0
    3.6129   -6.7148   29.5335 He  0  0  0  0  0  0  0  0  0  0  0  0
    2.4422   -7.4954   17.9273 He  0  0  0  0  0  0  0  0  0  0  0  0
    1.8825   -5.2481   26.8629 He  0  0  0  0  0  0  0  0  0  0  0  0
    3.0286   -9.4505   18.9712 He  0  0  0  0  0  0  0  0  0  0  0  0
    1.3911   -7.1629   18.3120 He  0  0  0  0  0  0  0  0  0  0  0  0
    0.4454   -9.4511   13.5044 He  0  0  0  0  0  0  0  0  0  0  0  0
    3.8377   -6.1691   26.6032 He  0  0  0  0  0  0  0  0  0  0  0  0
    0.7604   -4.1616   25.6425 He  0  0  0  0  0  0  0  0  0  0  0  0
    0.8101   -7.8815   28.8319 He  0  0  0  0  0  0  0  0  0  0  0  0
    3.9552   -9.3723   25.6190 He  0  0  0  0  0  0  0  0  0  0  0  0
    4.7188  -10.1607   17.1328 He  0  0  0  0  0  0  0  0  0  0  0  0
    0.3853   -9.7484   17.1794 He  0  0  0  0  0  0  0  0  0  0  0  0
    1.9207   -5.6739   28.1456 He  0  0  0  0  0  0  0  0  0  0  0  0
    5.2936   -6.9341   26.3135 He  0  0  0  0  0  0  0  0  0  0  0  0
  1  8  2  0
  1 12  3  0
  2  5  4  0
  2  6  3  0
  2 11  1  0
  2 12  2  0
  3  5  2  0
  3  8  4  0
  3 10  4  0
  4  8  3  0
  4 10  1  0
  4 11  3  0
  4 12  1  0
  5  6  1  0
  5  8  2  0
  5 10  2  0
  6 10  1  0
  6 11  4  0
  7  8  2  0
  8 11  3  0
  9 11  1  0
 10 11  3  0
 10 12  4  0
M  END
$$$$

 Created by Python create_sdf_string function

 28  3  0  0  0  0  0  0  0  0999 V2000
    3.7856   -9.6291   18.1068 C   0  0  0  0  0  0  0  0  0  0  0  0
    3.1030   -6.3972   26.9402 C   0  0  0  0  0  0  0  0  0  0  0  0
    0.4514   -9.1583   16.3035 C   0  0  0  0  0  0  0  0  0  0  0  0
    6.2055   -8.5973   18.8828 C   0  0  0  0  0  0  0  0  0  0  0  0
    5.1077   -8.9411   19.4926 C   0  0  0  0  0  0  0  0  0  0  0  0
    3.2194   -6.5800   29.0862 C   0  0  0  0  0  0  0  0  0  0  0  0
    2.4931   -8.2677   16.9337 C   0  0  0  0  0  0  0  0  0  0  0  0
    5.1327   -8.7867   17.8605 C   0  0  0  0  0  0  0  0  0  0  0  0
    1.5875   -5.0541   27.1222 C   0  0  0  0  0  0  0  0  0  0  0  0
    0.5514  -10.2468   17.4310 C   0  0  0  0  0  0  0  0  0  0  0  0
    3.8741   -7.4952   25.7318 C   0  0  0  0  0  0  0  0  0  0  0  0
    3.0835   -9.6713   18.0462 C   0  0  0  0  0  0  0  0  0  0  0  0
    1.5434   -8.1477   16.7955 C   0  0  0  0  0  0  0  0  0  0  0  0
    2.3556   -4.5406   27.7901 C   0  0  0  0  0  0  0  0  0  0  0  0
    0.5530   -9.2479   15.1712 C   0  0  0  0  0  0  0  0  0  0  0  0
    3.8074   -6.3674   26.9621 C   0  0  0  0  0  0  0  0  0  0  0  0
    3.0402   -6.6102   28.1973 C   0  0  0  0  0  0  0  0  0  0  0  0
    5.0904   -8.4075   21.5213 C   0  0  0  0  0  0  0  0  0  0  0  0
    1.0783   -4.4368   26.7919 C   0  0  0  0  0  0  0  0  0  0  0  0
    1.4096   -7.1944   28.5761 C   0  0  0  0  0  0  0  0  0  0  0  0
    5.1755   -9.9213   17.8129 C   0  0  0  0  0  0  0  0  0  0  0  0
    4.0898   -7.9355   25.6778 C   0  0  0  0  0  0  0  0  0  0  0  0
    4.7821   -9.8824   17.5425 C   0  0  0  0  0  0  0  0  0  0  0  0
    0.3788   -9.6186   16.7301 C   0  0  0  0  0  0  0  0  0  0  0  0
    1.8618   -5.7671   28.3398 C   0  0  0  0  0  0  0  0  0  0  0  0
    3.3256   -7.7251   26.4205 C   0  0  0  0  0  0  0  0  0  0  0  0
    1.9125   -9.9226   17.5523 C   0  0  0  0  0  0  0  0  0  0  0  0
    4.9862   -7.1686   26.4778 C   0  0  0  0  0  0  0  0  0  0  0  0
  7 13  4  0
  9 19  1  0
 21 23  4  0
M  END
$$$$

 Created by Python create_sdf_string function

 28 36  0  0  0  0  0  0  0  0999 V2000
    4.7005  -10.1172   16.6564 C   0  0  0  0  0  0  0  0  0  0  0  0
    2.8732   -4.9666   26.4585 O   0  0  0  0  0  0  0  0  0  0  0  0
    2.2860   -6.8959   29.8608 P   0  0  0  0  0  0  0  0  0  0  0  0
    1.3390   -8.4203   17.0883 C   0  0  0  0  0  0  0  0  0  0  0  0
    1.9550   -4.8391   26.8289 P   0  0  0  0  0  0  0  0  0  0  0  0
    3.4509   -5.8391   27.0051 F   0  0  0  0  0  0  0  0  0  0  0  0
    5.1631   -8.3048   21.7180 S   0  0  0  0  0  0  0  0  0  0  0  0
    2.2546   -2.9958   25.9134 N   0  0  0  0  0  0  0  0  0  0  0  0
    2.0162   -7.3170   27.1457 O   0  0  0  0  0  0  0  0  0  0  0  0
    5.2906   -9.3670   18.4738 Br  0  0  0  0  0  0  0  0  0  0  0  0
    6.0129  -11.2570   18.8276 P   0  0  0  0  0  0  0  0  0  0  0  0
    0.2408   -9.2532   16.6314 C   0  0  0  0  0  0  0  0  0  0  0  0
    2.9171   -5.6949   27.7289 S   0  0  0  0  0  0  0  0  0  0  0  0
    4.4619   -7.9234   27.6741 C   0  0  0  0  0  0  0  0  0  0  0  0
    1.2154   -9.1427   15.3333 He  0  0  0  0  0  0  0  0  0  0  0  0
    6.1889   -9.7375   18.2360 He  0  0  0  0  0  0  0  0  0  0  0  0
    6.1091   -9.5384   19.0352 He  0  0  0  0  0  0  0  0  0  0  0  0
    2.1772   -8.1255   16.5481 He  0  0  0  0  0  0  0  0  0  0  0  0
    5.8958   -8.0321   17.6229 He  0  0  0  0  0  0  0  0  0  0  0  0
   -0.0539   -5.6106   25.5768 He  0  0  0  0  0  0  0  0  0  0  0  0
    0.9748   -9.3310   16.5438 He  0  0  0  0  0  0  0  0  0  0  0  0
    4.1007   -8.0469   25.5080 He  0  0  0  0  0  0  0  0  0  0  0  0
    3.1287  -10.9180   17.9167 He  0  0  0  0  0  0  0  0  0  0  0  0
    0.4107   -8.6521   14.3910 He  0  0  0  0  0  0  0  0  0  0  0  0
    3.4525   -6.3870   28.4019 He  0  0  0  0  0  0  0  0  0  0  0  0
    3.4928   -7.7581   26.9963 He  0  0  0  0  0  0  0  0  0  0  0  0
    3.9055   -6.7161   26.5512 He  0  0  0  0  0  0  0  0  0  0  0  0
    2.6760  -10.5851   18.1298 He  0  0  0  0  0  0  0  0  0  0  0  0
  1  2  1  0
  1  6  4  0
  1  9  2  0
  1 11  2  0
  1 13  2  0
  1 14  1  0
  2  4  4  0
  2  5  2  0
  2 11  2  0
  2 14  4  0
  3  5  2  0
  3  6  4  0
  3 11  2  0
  4  6  2  0
  4  7  3  0
  4  8  1  0
  5  6  2  0
  5  9  2  0
  5 11  1  0
  6  8  1  0
  6  9  1  0
  6 11  4  0
  6 12  2  0
  6 13  2  0
  6 14  2  0
  7  8  4  0
  7  9  2  0
  7 10  1  0
  7 11  4  0
  7 12  2  0
  8  9  1  0
  8 10  4  0
  8 13  1  0
  9 11  3  0
 10 13  4  0
 12 14  2  0
M  END
$$$$

 Created by Python create_sdf_string function

 28  2  0  0  0  0  0  0  0  0999 V2000
    4.1739   -9.9855   17.4079 C   0  0  0  0  0  0  0  0  0  0  0  0
    2.3831   -4.7428   26.9692 C   0  0  0  0  0  0  0  0  0  0  0  0
    1.2692   -8.9389   15.5335 C   0  0  0  0  0  0  0  0  0  0  0  0
    5.9905   -8.9667   17.8654 C   0  0  0  0  0  0  0  0  0  0  0  0
    6.0720   -8.6478   18.4470 C   0  0  0  0  0  0  0  0  0  0  0  0
    2.4863   -7.0096   29.2630 C   0  0  0  0  0  0  0  0  0  0  0  0
    2.2519   -8.5980   16.3337 C   0  0  0  0  0  0  0  0  0  0  0  0
    5.8162   -8.0671   17.8047 C   0  0  0  0  0  0  0  0  0  0  0  0
    0.6435   -5.4073   26.7491 C   0  0  0  0  0  0  0  0  0  0  0  0
    0.8195   -9.2432   16.4244 C   0  0  0  0  0  0  0  0  0  0  0  0
    4.3007   -7.5291   25.9178 C   0  0  0  0  0  0  0  0  0  0  0  0
    3.1082  -10.6367   17.7156 C   0  0  0  0  0  0  0  0  0  0  0  0
    1.6097   -9.1669   16.7165 C   0  0  0  0  0  0  0  0  0  0  0  0
    1.6456   -4.7492   27.1981 C   0  0  0  0  0  0  0  0  0  0  0  0
    0.4858   -8.6463   15.0731 C   0  0  0  0  0  0  0  0  0  0  0  0
    3.4735   -6.5531   28.4148 C   0  0  0  0  0  0  0  0  0  0  0  0
    3.1423   -5.9537   27.3196 C   0  0  0  0  0  0  0  0  0  0  0  0
    5.7825   -8.6215   20.0258 C   0  0  0  0  0  0  0  0  0  0  0  0
    1.9519   -3.6478   26.9489 C   0  0  0  0  0  0  0  0  0  0  0  0
    2.1184   -6.8970   27.4454 C   0  0  0  0  0  0  0  0  0  0  0  0
    5.0916   -9.2342   17.9808 C   0  0  0  0  0  0  0  0  0  0  0  0
    3.5987   -7.5777   27.3235 C   0  0  0  0  0  0  0  0  0  0  0  0
    5.3976   -9.9974   18.0618 C   0  0  0  0  0  0  0  0  0  0  0  0
    0.1877   -9.2436   16.4183 C   0  0  0  0  0  0  0  0  0  0  0  0
    2.6892   -5.7141   27.9559 C   0  0  0  0  0  0  0  0  0  0  0  0
    3.8668   -6.9310   26.6736 C   0  0  0  0  0  0  0  0  0  0  0  0
    2.3650  -10.3658   17.7370 C   0  0  0  0  0  0  0  0  0  0  0  0
    4.3749   -7.6913   27.7766 C   0  0  0  0  0  0  0  0  0  0  0  0
 11 26  1  0
 12 27  4  0
M  END
$$$$

 Created by Python create_sdf_string function

 28 27  0  0  0  0  0  0  0  0999 V2000
    0.7558   -9.0304   15.0211 S   0  0  0  0  0  0  0  0  0  0  0  0
    3.1834   -7.5314   18.6429 P   0  0  0  0  0  0  0  0  0  0  0  0
    7.5039   -8.9802   16.9907 Cl  0  0  0  0  0  0  0  0  0  0  0  0
   -0.7508   -4.2524   26.5675 Se  0  0  0  0  0  0  0  0  0  0  0  0
    0.1359   -8.7883   16.1350 F   0  0  0  0  0  0  0  0  0  0  0  0
    4.5548   -7.8761   26.3303 N   0  0  0  0  0  0  0  0  0  0  0  0
    2.7751   -7.4560   17.7139 B   0  0  0  0  0  0  0  0  0  0  0  0
    3.1416   -8.1208   27.8122 F   0  0  0  0  0  0  0  0  0  0  0  0
    0.7871   -9.6234   15.4495 C   0  0  0  0  0  0  0  0  0  0  0  0
    3.6272   -7.2377   28.3923 F   0  0  0  0  0  0  0  0  0  0  0  0
    2.3867  -10.5451   17.8065 I   0  0  0  0  0  0  0  0  0  0  0  0
    4.7458   -7.5009   28.2705 O   0  0  0  0  0  0  0  0  0  0  0  0
    5.0848  -10.1896   16.8977 He  0  0  0  0  0  0  0  0  0  0  0  0
    0.7038   -4.6992   27.8434 He  0  0  0  0  0  0  0  0  0  0  0  0
    6.2219   -8.5512   17.6016 He  0  0  0  0  0  0  0  0  0  0  0  0
    5.1629   -8.3352   19.5736 He  0  0  0  0  0  0  0  0  0  0  0  0
    3.4575   -7.8765   28.2793 He  0  0  0  0  0  0  0  0  0  0  0  0
    2.7798  -11.5761   18.2426 He  0  0  0  0  0  0  0  0  0  0  0  0
    1.1495   -4.8138   26.0865 He  0  0  0  0  0  0  0  0  0  0  0  0
   -0.0003   -9.0155   14.2686 He  0  0  0  0  0  0  0  0  0  0  0  0
    4.0094   -4.0089   26.8616 He  0  0  0  0  0  0  0  0  0  0  0  0
    6.7188   -7.4843   20.8090 He  0  0  0  0  0  0  0  0  0  0  0  0
    3.4205   -2.9096   27.2361 He  0  0  0  0  0  0  0  0  0  0  0  0
    3.4466   -5.7951   27.2240 He  0  0  0  0  0  0  0  0  0  0  0  0
    6.0906   -9.0483   18.0933 He  0  0  0  0  0  0  0  0  0  0  0  0
    3.7029   -8.3689   28.0021 He  0  0  0  0  0  0  0  0  0  0  0  0
    4.8548  -11.7015   16.6120 He  0  0  0  0  0  0  0  0  0  0  0  0
    4.4726   -6.6504   27.0254 He  0  0  0  0  0  0  0  0  0  0  0  0
  1  2  2  0
  1  4  1  0
  1  5  4  0
  1  8  1  0
  1 11  2  0
  2  8  1  0
  2  9  4  0
  2 10  3  0
  3  8  1  0
  3  9  3  0
  4  8  1  0
  4 11  2  0
  5  7  1  0
  5  8  2  0
  5 11  3  0
  6 10  4  0
  6 11  3  0
  7  8  2  0
  7 10  4  0
  7 11  2  0
  7 12  1  0
  8 10  1  0
  8 11  2  0
  9 10  1  0
  9 12  1  0
 10 11  4  0
 10 12  3  0
M  END
$$$$

 Created by Python create_sdf_string function

 28  7  0  0  0  0  0  0  0  0999 V2000
    4.8210  -10.0331   17.2203 C   0  0  0  0  0  0  0  0  0  0  0  0
    1.1196   -4.8962   27.4004 C   0  0  0  0  0  0  0  0  0  0  0  0
    0.8544   -9.0405   15.6376 C   0  0  0  0  0  0  0  0  0  0  0  0
    6.4819   -8.6026   17.3790 C   0  0  0  0  0  0  0  0  0  0  0  0
    5.8406   -8.8102   18.4897 C   0  0  0  0  0  0  0  0  0  0  0  0
    3.4606   -7.8557   28.0035 C   0  0  0  0  0  0  0  0  0  0  0  0
    3.5640   -8.6662   17.0029 C   0  0  0  0  0  0  0  0  0  0  0  0
    6.9416   -8.7523   17.1830 C   0  0  0  0  0  0  0  0  0  0  0  0
    0.3461   -4.4090   26.8745 C   0  0  0  0  0  0  0  0  0  0  0  0
    0.5297   -8.9099   16.2605 C   0  0  0  0  0  0  0  0  0  0  0  0
    4.6446   -7.6404   26.4059 C   0  0  0  0  0  0  0  0  0  0  0  0
    2.7939  -10.7582   17.3855 C   0  0  0  0  0  0  0  0  0  0  0  0
    2.5482   -8.4890   16.5931 C   0  0  0  0  0  0  0  0  0  0  0  0
    1.1420   -4.8846   26.9412 C   0  0  0  0  0  0  0  0  0  0  0  0
    0.2763   -9.0597   15.0203 C   0  0  0  0  0  0  0  0  0  0  0  0
    3.1348   -7.9588   27.6452 C   0  0  0  0  0  0  0  0  0  0  0  0
    3.1159   -4.2724   27.1612 C   0  0  0  0  0  0  0  0  0  0  0  0
    6.3304   -8.4250   18.7889 C   0  0  0  0  0  0  0  0  0  0  0  0
    2.5591   -3.5786   27.1984 C   0  0  0  0  0  0  0  0  0  0  0  0
    3.0884   -5.6077   27.2834 C   0  0  0  0  0  0  0  0  0  0  0  0
    5.5503   -9.1412   17.5622 C   0  0  0  0  0  0  0  0  0  0  0  0
    3.8951   -8.3915   27.8060 C   0  0  0  0  0  0  0  0  0  0  0  0
    4.3235  -11.2012   17.0086 C   0  0  0  0  0  0  0  0  0  0  0  0
    1.0961   -9.5338   15.9096 C   0  0  0  0  0  0  0  0  0  0  0  0
    3.3579   -6.9668   27.8779 C   0  0  0  0  0  0  0  0  0  0  0  0
    4.3185   -6.7612   26.9766 C   0  0  0  0  0  0  0  0  0  0  0  0
    2.2468  -10.1418   17.1044 C   0  0  0  0  0  0  0  0  0  0  0  0
    4.7851   -7.7553   27.8298 C   0  0  0  0  0  0  0  0  0  0  0  0
  2 14  4  0
  3 15  1  0
  4  8  4  0
  5 18  4  0
  9 14  1  0
 12 27  4  0
 17 19  1  0
M  END
$$$$

 Created by Python create_sdf_string function

 28 43  0  0  0  0  0  0  0  0999 V2000
    6.2724   -8.9034   17.9496 N   0  0  0  0  0  0  0  0  0  0  0  0
   -0.0545   -4.7621   27.7079 C   0  0  0  0  0  0  0  0  0  0  0  0
    4.2137   -9.3681   18.0945 S   0  0  0  0  0  0  0  0  0  0  0  0
    3.3303   -7.8425   18.0764 O   0  0  0  0  0  0  0  0  0  0  0  0
    1.0629   -5.8728   27.0596 Br  0  0  0  0  0  0  0  0  0  0  0  0
    4.5976   -6.1851   25.1722 O   0  0  0  0  0  0  0  0  0  0  0  0
    1.4483   -3.9021   26.2828 O   0  0  0  0  0  0  0  0  0  0  0  0
   -0.2840  -10.6907   15.1674 N   0  0  0  0  0  0  0  0  0  0  0  0
    1.5305   -7.2950   27.4442 N   0  0  0  0  0  0  0  0  0  0  0  0
    1.5861   -3.1281   27.8154 P   0  0  0  0  0  0  0  0  0  0  0  0
    6.5784   -8.5055   17.3319 O   0  0  0  0  0  0  0  0  0  0  0  0
    6.6665  -11.1774   17.1132 S   0  0  0  0  0  0  0  0  0  0  0  0
    2.6693  -10.4297   15.7446 F   0  0  0  0  0  0  0  0  0  0  0  0
    3.7865   -5.7760   27.9120 C   0  0  0  0  0  0  0  0  0  0  0  0
    4.7234   -7.3334   26.3725 C   0  0  0  0  0  0  0  0  0  0  0  0
    5.8826   -7.8018   27.9773 N   0  0  0  0  0  0  0  0  0  0  0  0
    2.4408   -8.8831   14.5434 He  0  0  0  0  0  0  0  0  0  0  0  0
    5.4014   -7.8760   17.6683 He  0  0  0  0  0  0  0  0  0  0  0  0
    1.9769   -9.3200   27.7149 He  0  0  0  0  0  0  0  0  0  0  0  0
    9.0799   -9.2113   17.1433 He  0  0  0  0  0  0  0  0  0  0  0  0
    1.7785  -10.4374   17.1125 He  0  0  0  0  0  0  0  0  0  0  0  0
    1.8047  -10.4812   18.0679 He  0  0  0  0  0  0  0  0  0  0  0  0
    2.9049  -10.3059   15.3907 He  0  0  0  0  0  0  0  0  0  0  0  0
    6.6844   -8.4882   18.9440 He  0  0  0  0  0  0  0  0  0  0  0  0
    1.8599   -3.8269   28.4218 He  0  0  0  0  0  0  0  0  0  0  0  0
    2.0474   -3.8600   26.8856 He  0  0  0  0  0  0  0  0  0  0  0  0
    2.9913  -10.4619   26.5705 He  0  0  0  0  0  0  0  0  0  0  0  0
    2.2948   -9.7969   16.4262 He  0  0  0  0  0  0  0  0  0  0  0  0
  1  5  3  0
  1  6  2  0
  1 12  3  0
  1 13  1  0
  1 15  4  0
  1 16  2  0
  2  9  2  0
  2 15  2  0
  2 16  1  0
  3  5  1  0
  3 10  4  0
  3 11  4  0
  3 13  1  0
  4  6  2  0
  4  8  1  0
  4 12  3  0
  4 15  2  0
  4 16  2  0
  5  6  1  0
  5  8  2  0
  5  9  4  0
  5 16  2  0
  6  7  1  0
  6  8  3  0
  6 10  3  0
  6 12  4  0
  6 16  3  0
  7  9  1  0
  7 11  4  0
  7 14  2  0
  8 13  2  0
  9 11  3  0
  9 12  4  0
  9 13  4  0
  9 15  1  0
  9 16  2  0
 10 14  1  0
 10 15  2  0
 11 13  4  0
 12 16  4  0
 13 15  4  0
 14 15  4  0
 15 16  3  0
M  END
$$$$

 Created by Python create_sdf_string function

 28  4  0  0  0  0  0  0  0  0999 V2000
    6.2795   -8.8287   17.6082 C   0  0  0  0  0  0  0  0  0  0  0  0
    0.4353   -4.8280   27.3868 C   0  0  0  0  0  0  0  0  0  0  0  0
    2.3166   -9.3852   15.1737 C   0  0  0  0  0  0  0  0  0  0  0  0
    5.4673   -8.2978   17.4979 C   0  0  0  0  0  0  0  0  0  0  0  0
    4.4854   -9.5248   17.4388 C   0  0  0  0  0  0  0  0  0  0  0  0
    2.2473   -8.3374   27.3352 C   0  0  0  0  0  0  0  0  0  0  0  0
    3.6515   -8.7852   17.1128 C   0  0  0  0  0  0  0  0  0  0  0  0
    8.0620   -8.7258   17.1350 C   0  0  0  0  0  0  0  0  0  0  0  0
    1.4643   -5.9953   27.1812 C   0  0  0  0  0  0  0  0  0  0  0  0
    1.3810  -10.1286   17.0238 C   0  0  0  0  0  0  0  0  0  0  0  0
    4.2069   -7.0316   26.3154 C   0  0  0  0  0  0  0  0  0  0  0  0
    1.5514  -10.2533   17.5361 C   0  0  0  0  0  0  0  0  0  0  0  0
    2.9156  -10.0925   15.9046 C   0  0  0  0  0  0  0  0  0  0  0  0
    1.4056   -4.1104   27.0742 C   0  0  0  0  0  0  0  0  0  0  0  0
    0.5243  -10.3796   15.5219 C   0  0  0  0  0  0  0  0  0  0  0  0
    1.8924   -7.0482   27.2555 C   0  0  0  0  0  0  0  0  0  0  0  0
    1.4166   -3.3043   27.6608 C   0  0  0  0  0  0  0  0  0  0  0  0
    6.7706   -8.4005   18.0643 C   0  0  0  0  0  0  0  0  0  0  0  0
    1.7639   -3.9412   27.7910 C   0  0  0  0  0  0  0  0  0  0  0  0
    2.0662   -4.0829   27.2218 C   0  0  0  0  0  0  0  0  0  0  0  0
    6.6647   -8.5017   17.3144 C   0  0  0  0  0  0  0  0  0  0  0  0
    2.9142   -8.7843   26.9838 C   0  0  0  0  0  0  0  0  0  0  0  0
    6.6124  -10.0538   16.7533 C   0  0  0  0  0  0  0  0  0  0  0  0
    2.5686  -10.2283   15.8867 C   0  0  0  0  0  0  0  0  0  0  0  0
    3.4451   -5.9182   27.2863 C   0  0  0  0  0  0  0  0  0  0  0  0
    4.3125   -7.2104   26.6776 C   0  0  0  0  0  0  0  0  0  0  0  0
    2.0947   -9.7883   16.3278 C   0  0  0  0  0  0  0  0  0  0  0  0
    4.9391   -7.6124   27.2080 C   0  0  0  0  0  0  0  0  0  0  0  0
  6 22  1  0
 10 12  4  0
 11 26  1  0
 26 28  1  0
M  END
$$$$

 Created by Python create_sdf_string function

 28 76  0  0  0  0  0  0  0  0999 V2000
    5.7729   -7.4338   17.7148 C   0  0  0  0  0  0  0  0  0  0  0  0
    0.5035   -5.7739   27.2843 O   0  0  0  0  0  0  0  0  0  0  0  0
    5.7011   -8.6939   18.3051 N   0  0  0  0  0  0  0  0  0  0  0  0
    6.0479  -10.3446   17.0931 C   0  0  0  0  0  0  0  0  0  0  0  0
    1.2201   -7.9932   27.1692 B   0  0  0  0  0  0  0  0  0  0  0  0
    3.3252   -7.8631   17.7658 F   0  0  0  0  0  0  0  0  0  0  0  0
    7.3307   -9.3423   16.1553 N   0  0  0  0  0  0  0  0  0  0  0  0
    3.6406   -8.4596   26.3969 C   0  0  0  0  0  0  0  0  0  0  0  0
    0.8471   -4.8773   26.3272 N   0  0  0  0  0  0  0  0  0  0  0  0
    0.4069   -5.7292   26.7555 O   0  0  0  0  0  0  0  0  0  0  0  0
    2.2469   -4.0192   28.2826 C   0  0  0  0  0  0  0  0  0  0  0  0
    2.7967   -5.4496   27.4487 N   0  0  0  0  0  0  0  0  0  0  0  0
    5.6754   -9.3526   18.4441 O   0  0  0  0  0  0  0  0  0  0  0  0
    3.0097   -8.6857   26.2652 Cl  0  0  0  0  0  0  0  0  0  0  0  0
    2.2628   -8.8477   14.5612 C   0  0  0  0  0  0  0  0  0  0  0  0
    3.0893   -7.4470   28.5104 O   0  0  0  0  0  0  0  0  0  0  0  0
    6.3438   -6.6313   27.7367 C   0  0  0  0  0  0  0  0  0  0  0  0
    3.5597  -10.4942   16.8379 O   0  0  0  0  0  0  0  0  0  0  0  0
    6.0741   -9.7315   28.2264 C   0  0  0  0  0  0  0  0  0  0  0  0
    3.4910   -8.9157   15.2033 He  0  0  0  0  0  0  0  0  0  0  0  0
    1.4895   -5.0160   25.8416 He  0  0  0  0  0  0  0  0  0  0  0  0
    1.0461  -10.6945   16.6864 He  0  0  0  0  0  0  0  0  0  0  0  0
    1.2369   -9.2385   17.5305 He  0  0  0  0  0  0  0  0  0  0  0  0
    1.8680   -9.8115   15.5721 He  0  0  0  0  0  0  0  0  0  0  0  0
    0.5646  -10.7015   15.0519 He  0  0  0  0  0  0  0  0  0  0  0  0
    1.0753   -3.8212   27.1671 He  0  0  0  0  0  0  0  0  0  0  0  0
    5.5758   -9.1351   16.2547 He  0  0  0  0  0  0  0  0  0  0  0  0
    6.3202   -9.9748   16.0133 He  0  0  0  0  0  0  0  0  0  0  0  0
  1  2  4  0
  1  3  1  0
  1  7  2  0
  1 13  3  0
  1 16  2  0
  1 17  2  0
  1 18  2  0
  2  4  4  0
  2 12  2  0
  2 13  3  0
  2 14  4  0
  2 16  3  0
  2 18  4  0
  3  4  2  0
  3  5  4  0
  3  6  2  0
  3  8  3  0
  3  9  1  0
  3 10  4  0
  3 13  4  0
  3 14  2  0
  3 18  2  0
  4  5  2  0
  4  6  3  0
  4  7  3  0
  4  8  3  0
  4 11  4  0
  4 15  3  0
  4 17  2  0
  5  6  1  0
  5  7  3  0
  5 12  2  0
  5 14  3  0
  5 15  2  0
  5 17  3  0
  5 18  2  0
  6  8  1  0
  6  9  4  0
  6 10  3  0
  6 12  1  0
  6 13  3  0
  6 19  1  0
  7  8  3  0
  7  9  1  0
  7 10  4  0
  7 11  3  0
  7 13  2  0
  7 17  1  0
  7 18  3  0
  8  9  1  0
  8 13  4  0
  8 14  2  0
  8 15  1  0
  8 16  4  0
  8 17  3  0
  8 18  3  0
  9 10  1  0
  9 16  3  0
 10 12  2  0
 10 14  1  0
 10 19  4  0
 11 12  1  0
 11 14  1  0
 11 15  3  0
 11 18  1  0
 11 19  1  0
 12 13  2  0
 12 14  1  0
 13 17  2  0
 14 16  2  0
 14 17  4  0
 14 18  1  0
 15 18  4  0
 15 19  2  0
 16 19  1  0
 17 19  3  0
M  END
$$$$

 Created by Python create_sdf_string function

 28  3  0  0  0  0  0  0  0  0999 V2000
    6.1343   -7.9603   17.7761 C   0  0  0  0  0  0  0  0  0  0  0  0
    0.7095   -5.8864   27.3477 C   0  0  0  0  0  0  0  0  0  0  0  0
    3.3966   -9.1828   15.5965 C   0  0  0  0  0  0  0  0  0  0  0  0
    5.8775   -8.4994   18.0814 C   0  0  0  0  0  0  0  0  0  0  0  0
    6.0933   -9.9882   16.6109 C   0  0  0  0  0  0  0  0  0  0  0  0
    1.9014   -7.5962   27.2210 C   0  0  0  0  0  0  0  0  0  0  0  0
    3.5229   -8.6728   16.9336 C   0  0  0  0  0  0  0  0  0  0  0  0
    7.1926   -9.5018   16.4096 C   0  0  0  0  0  0  0  0  0  0  0  0
    1.5672   -5.2225   26.7478 C   0  0  0  0  0  0  0  0  0  0  0  0
    1.0890  -10.2036   16.5583 C   0  0  0  0  0  0  0  0  0  0  0  0
    4.0258   -7.8559   26.7964 C   0  0  0  0  0  0  0  0  0  0  0  0
    1.3680   -9.7129   16.9840 C   0  0  0  0  0  0  0  0  0  0  0  0
    1.8404   -9.7680   15.5628 C   0  0  0  0  0  0  0  0  0  0  0  0
    0.7634   -4.8250   26.8929 C   0  0  0  0  0  0  0  0  0  0  0  0
    0.7567  -10.2106   15.2215 C   0  0  0  0  0  0  0  0  0  0  0  0
    0.5299   -5.6521   27.0690 C   0  0  0  0  0  0  0  0  0  0  0  0
    1.2143   -3.7327   27.2505 C   0  0  0  0  0  0  0  0  0  0  0  0
    5.4680   -9.3505   16.4728 C   0  0  0  0  0  0  0  0  0  0  0  0
    2.3398   -4.3409   27.6896 C   0  0  0  0  0  0  0  0  0  0  0  0
    3.0450   -5.8881   27.3944 C   0  0  0  0  0  0  0  0  0  0  0  0
    5.8123   -8.7779   18.2060 C   0  0  0  0  0  0  0  0  0  0  0  0
    3.4485   -7.9019   26.7739 C   0  0  0  0  0  0  0  0  0  0  0  0
    6.3157  -10.1575   16.1268 C   0  0  0  0  0  0  0  0  0  0  0  0
    2.2716   -9.2497   15.0262 C   0  0  0  0  0  0  0  0  0  0  0  0
    3.5527   -7.3901   27.7350 C   0  0  0  0  0  0  0  0  0  0  0  0
    5.3866   -7.0274   27.3467 C   0  0  0  0  0  0  0  0  0  0  0  0
    3.1722   -9.9273   16.6919 C   0  0  0  0  0  0  0  0  0  0  0  0
    5.2772   -8.4500   27.5093 C   0  0  0  0  0  0  0  0  0  0  0  0
  1  4  4  0
  4 21  4  0
 10 12  4  0
M  END
$$$$

 Created by Python create_sdf_string function

 28 58  0  0  0  0  0  0  0  0999 V2000
    5.8210   -8.3318   17.1139 I   0  0  0  0  0  0  0  0  0  0  0  0
   -0.5320   -6.6129   27.0156 P   0  0  0  0  0  0  0  0  0  0  0  0
    3.9802   -7.5686   28.8601 Se  0  0  0  0  0  0  0  0  0  0  0  0
    4.0679   -9.0766   18.0332 O   0  0  0  0  0  0  0  0  0  0  0  0
    8.8447  -11.0703   15.8248 F   0  0  0  0  0  0  0  0  0  0  0  0
    1.7162   -5.0852   27.0880 P   0  0  0  0  0  0  0  0  0  0  0  0
    4.0718   -7.5890   28.1140 C   0  0  0  0  0  0  0  0  0  0  0  0
    0.7994   -9.0547   16.6591 F   0  0  0  0  0  0  0  0  0  0  0  0
    3.1470   -8.8317   14.2080 O   0  0  0  0  0  0  0  0  0  0  0  0
    1.7123   -4.1572   27.0821 O   0  0  0  0  0  0  0  0  0  0  0  0
   -1.4337  -11.3325   15.8125 I   0  0  0  0  0  0  0  0  0  0  0  0
    1.7953   -6.1982   26.9693 N   0  0  0  0  0  0  0  0  0  0  0  0
    2.0288   -3.6168   27.7010 O   0  0  0  0  0  0  0  0  0  0  0  0
    2.5617   -6.3203   28.0135 C   0  0  0  0  0  0  0  0  0  0  0  0
    6.5417   -7.4871   17.5391 F   0  0  0  0  0  0  0  0  0  0  0  0
    2.9208   -8.4203   24.4252 N   0  0  0  0  0  0  0  0  0  0  0  0
    4.6344   -7.7481   26.9895 C   0  0  0  0  0  0  0  0  0  0  0  0
    4.3372   -6.0688   27.6055 O   0  0  0  0  0  0  0  0  0  0  0  0
    3.3200   -7.8709   15.7993 He  0  0  0  0  0  0  0  0  0  0  0  0
    5.7111   -7.0855   17.7634 He  0  0  0  0  0  0  0  0  0  0  0  0
    7.4106  -10.0014   16.0423 He  0  0  0  0  0  0  0  0  0  0  0  0
    1.5142   -9.7902   16.3601 He  0  0  0  0  0  0  0  0  0  0  0  0
    6.4876   -8.7471   16.4729 He  0  0  0  0  0  0  0  0  0  0  0  0
    2.4309   -3.6213   27.3482 He  0  0  0  0  0  0  0  0  0  0  0  0
    6.8951  -11.1733   14.6853 He  0  0  0  0  0  0  0  0  0  0  0  0
    4.1371   -9.6585   16.0452 He  0  0  0  0  0  0  0  0  0  0  0  0
    2.9460  -11.1520   16.6154 He  0  0  0  0  0  0  0  0  0  0  0  0
    4.8020   -8.4292   26.7908 He  0  0  0  0  0  0  0  0  0  0  0  0
  1  4  3  0
  1  5  4  0
  1  9  4  0
  1 10  3  0
  2  4  1  0
  2  9  4  0
  2 10  1  0
  2 12  3  0
  2 14  3  0
  3 10  1  0
  3 11  2  0
  3 12  3  0
  3 13  1  0
  3 14  2  0
  3 17  2  0
  3 18  3  0
  4  6  2  0
  4  8  1  0
  4 13  4  0
  4 14  4  0
  5  7  1  0
  5  8  3  0
  5 11  4  0
  5 12  1  0
  5 14  1  0
  5 16  2  0
  5 18  3  0
  6  8  1  0
  6  9  2  0
  6 11  2  0
  6 18  3  0
  7 11  1  0
  7 14  2  0
  7 17  4  0
  8  9  2  0
  8 10  4  0
  8 11  1  0
  8 13  1  0
  8 14  1  0
  8 16  2  0
  8 18  2  0
  9 11  2  0
  9 15  4  0
  9 18  1  0
 10 11  4  0
 10 16  3  0
 10 17  4  0
 10 18  4  0
 11 12  1  0
 11 14  1  0
 11 18  1  0
 12 14  4  0
 12 16  2  0
 12 18  4  0
 13 15  4  0
 13 17  1  0
 14 17  3  0
 15 16  2  0
M  END
$$$$

 Created by Python create_sdf_string function

 28  3  0  0  0  0  0  0  0  0999 V2000
    5.8210   -8.6597   17.0927 C   0  0  0  0  0  0  0  0  0  0  0  0
    0.4688   -5.8681   27.0719 C   0  0  0  0  0  0  0  0  0  0  0  0
    3.4260   -8.5011   16.4320 C   0  0  0  0  0  0  0  0  0  0  0  0
    5.9965   -7.8023   17.8112 C   0  0  0  0  0  0  0  0  0  0  0  0
    7.2455  -10.1973   16.0761 C   0  0  0  0  0  0  0  0  0  0  0  0
    4.1225   -7.4765   28.4581 C   0  0  0  0  0  0  0  0  0  0  0  0
    4.2093   -9.0751   17.2095 C   0  0  0  0  0  0  0  0  0  0  0  0
    7.9490  -10.4877   15.8680 C   0  0  0  0  0  0  0  0  0  0  0  0
    1.5985   -5.1612   27.1439 C   0  0  0  0  0  0  0  0  0  0  0  0
    1.5302   -9.7803   16.3264 C   0  0  0  0  0  0  0  0  0  0  0  0
    4.2018   -7.4444   28.0418 C   0  0  0  0  0  0  0  0  0  0  0  0
    1.0831   -9.3295   16.4501 C   0  0  0  0  0  0  0  0  0  0  0  0
    2.9677   -9.3520   15.4283 C   0  0  0  0  0  0  0  0  0  0  0  0
    1.4396   -4.0855   27.2302 C   0  0  0  0  0  0  0  0  0  0  0  0
    0.4104  -10.3243   16.0748 C   0  0  0  0  0  0  0  0  0  0  0  0
    2.0441   -6.2378   26.9733 C   0  0  0  0  0  0  0  0  0  0  0  0
    1.9689   -3.5438   27.5747 C   0  0  0  0  0  0  0  0  0  0  0  0
    6.4565   -9.3307   16.5639 C   0  0  0  0  0  0  0  0  0  0  0  0
    2.2352   -3.8417   27.3948 C   0  0  0  0  0  0  0  0  0  0  0  0
    2.7171   -6.3666   27.7206 C   0  0  0  0  0  0  0  0  0  0  0  0
    6.7607   -8.0532   17.5555 C   0  0  0  0  0  0  0  0  0  0  0  0
    3.6421   -7.5577   25.7053 C   0  0  0  0  0  0  0  0  0  0  0  0
    6.8346  -10.8259   15.4860 C   0  0  0  0  0  0  0  0  0  0  0  0
    4.2583   -9.5329   16.2461 C   0  0  0  0  0  0  0  0  0  0  0  0
    4.7411   -7.6412   26.9627 C   0  0  0  0  0  0  0  0  0  0  0  0
    3.9303   -6.1161   27.6962 C   0  0  0  0  0  0  0  0  0  0  0  0
    2.7362  -10.3878   16.5790 C   0  0  0  0  0  0  0  0  0  0  0  0
    4.7929   -7.9251   26.7034 C   0  0  0  0  0  0  0  0  0  0  0  0
  4 21  4  0
  5  8  4  0
 25 28  1  0
M  END
$$$$

 Created by Python create_sdf_string function

 28 42  0  0  0  0  0  0  0  0999 V2000
    5.1349   -8.4138   17.6954 C   0  0  0  0  0  0  0  0  0  0  0  0
   -1.3562   -5.9618   27.1636 N   0  0  0  0  0  0  0  0  0  0  0  0
    3.4839   -8.4358   17.5652 P   0  0  0  0  0  0  0  0  0  0  0  0
    5.8506   -6.8382   17.9831 C   0  0  0  0  0  0  0  0  0  0  0  0
    4.2254   -7.5317   17.7043 C   0  0  0  0  0  0  0  0  0  0  0  0
   -0.2895   -5.7183   27.9681 C   0  0  0  0  0  0  0  0  0  0  0  0
    4.3540   -5.8579   28.4455 F   0  0  0  0  0  0  0  0  0  0  0  0
    1.7628   -4.0704   28.5289 Cl  0  0  0  0  0  0  0  0  0  0  0  0
    0.7288  -10.9367   16.7218 C   0  0  0  0  0  0  0  0  0  0  0  0
    1.1121   -5.3769   24.7490 C   0  0  0  0  0  0  0  0  0  0  0  0
    1.9099   -6.9188   26.7903 C   0  0  0  0  0  0  0  0  0  0  0  0
    6.3535   -8.4209   17.3864 Se  0  0  0  0  0  0  0  0  0  0  0  0
    8.9200  -10.8557   13.4476 C   0  0  0  0  0  0  0  0  0  0  0  0
    2.0368  -10.7533   18.0190 C   0  0  0  0  0  0  0  0  0  0  0  0
    6.3068   -8.7020   27.1117 N   0  0  0  0  0  0  0  0  0  0  0  0
    7.4906   -9.2638   16.0167 He  0  0  0  0  0  0  0  0  0  0  0  0
    2.8135   -6.2605   27.8471 He  0  0  0  0  0  0  0  0  0  0  0  0
    7.4620   -9.4573   16.8364 He  0  0  0  0  0  0  0  0  0  0  0  0
    2.1054   -9.8160   16.0649 He  0  0  0  0  0  0  0  0  0  0  0  0
    0.0570   -8.2757   15.3237 He  0  0  0  0  0  0  0  0  0  0  0  0
    3.3069   -8.7153   14.3050 He  0  0  0  0  0  0  0  0  0  0  0  0
    0.5172   -3.7496   27.4636 He  0  0  0  0  0  0  0  0  0  0  0  0
    6.9824  -11.4342   16.6751 He  0  0  0  0  0  0  0  0  0  0  0  0
    2.7267   -4.4911   26.7877 He  0  0  0  0  0  0  0  0  0  0  0  0
    4.0998   -7.0589   25.8893 He  0  0  0  0  0  0  0  0  0  0  0  0
    4.6947  -10.1105   15.0443 He  0  0  0  0  0  0  0  0  0  0  0  0
    4.6777   -7.4758   24.5547 He  0  0  0  0  0  0  0  0  0  0  0  0
    3.8387   -6.7506   27.4060 He  0  0  0  0  0  0  0  0  0  0  0  0
  1  2  4  0
  1  4  3  0
  1  8  4  0
  1  9  3  0
  1 12  3  0
  1 15  1  0
  2  5  1  0
  2  6  1  0
  2  8  1  0
  2 11  2  0
  2 12  2  0
  2 13  4  0
  3  6  4  0
  3  7  1  0
  3  9  3  0
  3 10  1  0
  3 12  1  0
  3 15  1  0
  4  6  4  0
  4  7  3  0
  4 10  2  0
  4 11  4  0
  4 14  1  0
  5  9  4  0
  5 11  1  0
  5 12  2  0
  5 13  2  0
  6 11  1  0
  6 13  4  0
  6 15  1  0
  7  9  4  0
  7 10  3  0
  7 11  3  0
  8  9  1  0
  8 14  4  0
  8 15  3  0
  9 13  4  0
  9 14  3  0
 10 11  2  0
 10 13  3  0
 11 13  4  0
 13 14  2  0
M  END
$$$$

 Created by Python create_sdf_string function

 28  7  0  0  0  0  0  0  0  0999 V2000
    5.6529   -8.8691   17.1310 C   0  0  0  0  0  0  0  0  0  0  0  0
   -0.7287   -5.3465   27.2923 C   0  0  0  0  0  0  0  0  0  0  0  0
    3.4049   -8.9034   16.8967 C   0  0  0  0  0  0  0  0  0  0  0  0
    5.9444   -7.7960   18.0432 C   0  0  0  0  0  0  0  0  0  0  0  0
    7.3402   -9.5934   16.1790 C   0  0  0  0  0  0  0  0  0  0  0  0
    2.5439   -5.9983   27.4099 C   0  0  0  0  0  0  0  0  0  0  0  0
    4.4402   -8.4156   17.2398 C   0  0  0  0  0  0  0  0  0  0  0  0
    7.4380   -9.7293   16.2711 C   0  0  0  0  0  0  0  0  0  0  0  0
   -0.1796   -5.6332   27.5507 C   0  0  0  0  0  0  0  0  0  0  0  0
    2.1469   -9.4334   16.1372 C   0  0  0  0  0  0  0  0  0  0  0  0
    4.4269   -6.1439   27.7851 C   0  0  0  0  0  0  0  0  0  0  0  0
    0.8767   -8.8897   15.8447 C   0  0  0  0  0  0  0  0  0  0  0  0
    2.8971   -9.1061   15.4350 C   0  0  0  0  0  0  0  0  0  0  0  0
    1.6137   -4.2592   28.0464 C   0  0  0  0  0  0  0  0  0  0  0  0
    0.9816   -9.8529   16.6614 C   0  0  0  0  0  0  0  0  0  0  0  0
    1.2218   -5.8923   26.4965 C   0  0  0  0  0  0  0  0  0  0  0  0
    0.4675   -4.0732   27.4510 C   0  0  0  0  0  0  0  0  0  0  0  0
    6.9802  -10.8289   16.0213 C   0  0  0  0  0  0  0  0  0  0  0  0
    2.6559   -4.9765   27.2099 C   0  0  0  0  0  0  0  0  0  0  0  0
    2.1528   -6.6397   26.7847 C   0  0  0  0  0  0  0  0  0  0  0  0
    6.3566   -8.4342   17.4338 C   0  0  0  0  0  0  0  0  0  0  0  0
    4.2348   -7.3650   26.3543 C   0  0  0  0  0  0  0  0  0  0  0  0
    7.8881  -10.5901   14.8982 C   0  0  0  0  0  0  0  0  0  0  0  0
    5.2963   -9.9292   15.8320 C   0  0  0  0  0  0  0  0  0  0  0  0
    4.5106   -7.6239   25.6621 C   0  0  0  0  0  0  0  0  0  0  0  0
    4.0968   -6.6918   27.1585 C   0  0  0  0  0  0  0  0  0  0  0  0
    1.9392  -10.0087   17.2919 C   0  0  0  0  0  0  0  0  0  0  0  0
    5.6412   -7.7270   26.8554 C   0  0  0  0  0  0  0  0  0  0  0  0
  2  9  1  0
  3  7  4  0
  4 21  4  0
  5  8  4  0
 12 15  1  0
 15 27  4  0
 22 25  1  0
M  END
$$$$

 Created by Python create_sdf_string function

 28 44  0  0  0  0  0  0  0  0999 V2000
    4.5409   -9.0825   16.3799 C   0  0  0  0  0  0  0  0  0  0  0  0
   -0.5397   -5.1881   27.5997 S   0  0  0  0  0  0  0  0  0  0  0  0
    3.9860  -10.0834   18.1426 I   0  0  0  0  0  0  0  0  0  0  0  0
    8.3538   -9.7780   16.0457 F   0  0  0  0  0  0  0  0  0  0  0  0
    3.1525   -4.8388   27.4180 C   0  0  0  0  0  0  0  0  0  0  0  0
    4.7421   -8.3792   18.1327 N   0  0  0  0  0  0  0  0  0  0  0  0
    0.1796   -6.4839   26.9036 F   0  0  0  0  0  0  0  0  0  0  0  0
    3.1968   -8.2417   15.0966 O   0  0  0  0  0  0  0  0  0  0  0  0
    0.5626   -8.8438   15.9249 C   0  0  0  0  0  0  0  0  0  0  0  0
    2.9287  -10.6682   16.1612 S   0  0  0  0  0  0  0  0  0  0  0  0
   -0.1345   -4.0558   26.8740 C   0  0  0  0  0  0  0  0  0  0  0  0
   -0.9467   -3.0870   27.4430 P   0  0  0  0  0  0  0  0  0  0  0  0
    7.6343  -12.1568   15.7398 C   0  0  0  0  0  0  0  0  0  0  0  0
    6.1077   -7.8647   26.3310 C   0  0  0  0  0  0  0  0  0  0  0  0
    5.2170   -7.7547   25.2971 Cl  0  0  0  0  0  0  0  0  0  0  0  0
    3.0639  -10.4713   18.3472 O   0  0  0  0  0  0  0  0  0  0  0  0
    5.7779   -8.9427   18.4304 He  0  0  0  0  0  0  0  0  0  0  0  0
    7.3314   -8.5719   16.0506 He  0  0  0  0  0  0  0  0  0  0  0  0
    5.5343   -5.7256   27.5959 He  0  0  0  0  0  0  0  0  0  0  0  0
    0.5877  -10.3360   17.3182 He  0  0  0  0  0  0  0  0  0  0  0  0
    2.0363   -6.5091   25.5502 He  0  0  0  0  0  0  0  0  0  0  0  0
    2.6766   -6.4441   27.1888 He  0  0  0  0  0  0  0  0  0  0  0  0
    3.1206   -4.2550   27.0555 He  0  0  0  0  0  0  0  0  0  0  0  0
    6.7997  -10.3024   16.3459 He  0  0  0  0  0  0  0  0  0  0  0  0
    6.2588  -11.4932   14.7920 He  0  0  0  0  0  0  0  0  0  0  0  0
    5.5209  -11.7290   17.2084 He  0  0  0  0  0  0  0  0  0  0  0  0
    3.5154   -7.1131   26.8085 He  0  0  0  0  0  0  0  0  0  0  0  0
    7.5628   -8.1969   26.3789 He  0  0  0  0  0  0  0  0  0  0  0  0
  1  9  1  0
  1 10  2  0
  1 14  2  0
  1 15  1  0
  2  3  1  0
  2  6  2  0
  2  7  4  0
  2 10  3  0
  2 13  2  0
  2 16  2  0
  3  4  3  0
  3  8  1  0
  3 10  2  0
  3 14  1  0
  3 15  2  0
  3 16  4  0
  4  5  4  0
  4  6  3  0
  4 10  2  0
  4 11  3  0
  4 14  4  0
  4 15  1  0
  4 16  4  0
  5 11  1  0
  5 14  4  0
  6 12  2  0
  6 13  1  0
  6 14  3  0
  7 13  3  0
  7 14  4  0
  7 16  2  0
  8 10  4  0
  8 16  4  0
  9 11  3  0
  9 12  2  0
  9 14  2  0
 10 11  1  0
 10 16  3  0
 11 15  1  0
 11 16  4  0
 12 13  1  0
 12 14  4  0
 14 16  4  0
 15 16  2  0
M  END
$$$$

 Created by Python create_sdf_string function

 28 10  0  0  0  0  0  0  0  0999 V2000
    4.5578   -9.4610   16.7769 C   0  0  0  0  0  0  0  0  0  0  0  0
   -0.3009   -5.2106   27.2229 C   0  0  0  0  0  0  0  0  0  0  0  0
    3.8915   -9.9781   17.4487 C   0  0  0  0  0  0  0  0  0  0  0  0
    5.8252   -8.7668   18.0669 C   0  0  0  0  0  0  0  0  0  0  0  0
    8.0897  -10.1260   15.9616 C   0  0  0  0  0  0  0  0  0  0  0  0
    2.8603   -5.0588   27.2379 C   0  0  0  0  0  0  0  0  0  0  0  0
    5.4140   -8.8380   17.9215 C   0  0  0  0  0  0  0  0  0  0  0  0
    7.2992   -9.3103   16.4450 C   0  0  0  0  0  0  0  0  0  0  0  0
    0.5530   -5.9305   27.0159 C   0  0  0  0  0  0  0  0  0  0  0  0
    2.7433   -8.8905   15.8748 C   0  0  0  0  0  0  0  0  0  0  0  0
    5.3630   -6.3094   27.3554 C   0  0  0  0  0  0  0  0  0  0  0  0
    1.2736   -9.1981   16.2618 C   0  0  0  0  0  0  0  0  0  0  0  0
    2.6640  -10.1521   16.4182 C   0  0  0  0  0  0  0  0  0  0  0  0
    0.2871   -3.9848   27.1859 C   0  0  0  0  0  0  0  0  0  0  0  0
    1.0831   -9.9095   17.0319 C   0  0  0  0  0  0  0  0  0  0  0  0
    2.3014   -6.5803   26.6079 C   0  0  0  0  0  0  0  0  0  0  0  0
   -0.3876   -3.6315   27.2309 C   0  0  0  0  0  0  0  0  0  0  0  0
    7.6583  -11.4112   15.5420 C   0  0  0  0  0  0  0  0  0  0  0  0
    2.9527   -6.3431   26.9200 C   0  0  0  0  0  0  0  0  0  0  0  0
    2.3164   -4.4346   27.1930 C   0  0  0  0  0  0  0  0  0  0  0  0
    6.8047  -10.2300   16.2635 C   0  0  0  0  0  0  0  0  0  0  0  0
    5.8534   -7.4125   26.7686 C   0  0  0  0  0  0  0  0  0  0  0  0
    6.6738  -11.3204   15.2112 C   0  0  0  0  0  0  0  0  0  0  0  0
    5.7331  -11.1528   16.3969 C   0  0  0  0  0  0  0  0  0  0  0  0
    4.9627   -7.7115   26.0001 C   0  0  0  0  0  0  0  0  0  0  0  0
    3.8497   -6.9619   26.7309 C   0  0  0  0  0  0  0  0  0  0  0  0
    2.5935  -10.3975   17.6884 C   0  0  0  0  0  0  0  0  0  0  0  0
    6.3700   -7.6301   26.7825 C   0  0  0  0  0  0  0  0  0  0  0  0
  2  9  4  0
  3 27  4  0
  4  7  4  0
  6 20  4  0
 10 12  4  0
 12 15  4  0
 14 17  1  0
 18 23  4  0
 19 26  4  0
 22 28  1  0
M  END
$$$$

 Created by Python create_sdf_string function

 28 27  0  0  0  0  0  0  0  0999 V2000
   -0.9927   -5.9112   26.4492 N   0  0  0  0  0  0  0  0  0  0  0  0
    3.1288   -9.9881   18.7986 S   0  0  0  0  0  0  0  0  0  0  0  0
    6.7682   -7.1446   19.3811 O   0  0  0  0  0  0  0  0  0  0  0  0
    3.1520   -4.3540   27.2820 C   0  0  0  0  0  0  0  0  0  0  0  0
    2.5160   -7.6645   16.5332 C   0  0  0  0  0  0  0  0  0  0  0  0
   -0.4724   -1.3277   27.8408 F   0  0  0  0  0  0  0  0  0  0  0  0
    8.8767  -10.9647   15.2346 O   0  0  0  0  0  0  0  0  0  0  0  0
    5.7595   -7.9241   27.2431 O   0  0  0  0  0  0  0  0  0  0  0  0
    7.3829  -11.2560   14.5283 N   0  0  0  0  0  0  0  0  0  0  0  0
    5.9874  -10.9577   16.1191 O   0  0  0  0  0  0  0  0  0  0  0  0
    5.5319   -5.5646   26.5179 N   0  0  0  0  0  0  0  0  0  0  0  0
    1.8586   -9.7298   17.7635 C   0  0  0  0  0  0  0  0  0  0  0  0
    6.4264   -8.4755   27.9481 F   0  0  0  0  0  0  0  0  0  0  0  0
    3.6193   -9.8278   17.3731 He  0  0  0  0  0  0  0  0  0  0  0  0
    8.5384   -8.1112   15.6844 He  0  0  0  0  0  0  0  0  0  0  0  0
    6.1174   -8.9764   17.8596 He  0  0  0  0  0  0  0  0  0  0  0  0
    5.8267  -10.1116   15.5099 He  0  0  0  0  0  0  0  0  0  0  0  0
    0.3309   -5.6320   25.9810 He  0  0  0  0  0  0  0  0  0  0  0  0
    4.2057   -5.9451   25.6341 He  0  0  0  0  0  0  0  0  0  0  0  0
    0.7391   -7.1729   16.3374 He  0  0  0  0  0  0  0  0  0  0  0  0
    3.8582  -10.6031   16.2336 He  0  0  0  0  0  0  0  0  0  0  0  0
    1.7895   -8.9231   18.1566 He  0  0  0  0  0  0  0  0  0  0  0  0
    1.1439   -5.0205   26.5303 He  0  0  0  0  0  0  0  0  0  0  0  0
   -0.8141   -3.0581   26.0467 He  0  0  0  0  0  0  0  0  0  0  0  0
    1.8960   -6.3329   26.1250 He  0  0  0  0  0  0  0  0  0  0  0  0
    2.4693   -3.9817   28.0395 He  0  0  0  0  0  0  0  0  0  0  0  0
    6.3562   -8.6433   15.5118 He  0  0  0  0  0  0  0  0  0  0  0  0
    5.6907   -5.8913   24.9005 He  0  0  0  0  0  0  0  0  0  0  0  0
  1  2  3  0
  1  3  1  0
  1  4  4  0
  1  5  1  0
  1  6  1  0
  1 12  4  0
  2  3  3  0
  2 10  3  0
  3  6  2  0
  3 11  3  0
  4  5  2  0
  5  7  3  0
  5  8  4  0
  5  9  2  0
  6  7  1  0
  6 10  4  0
  6 11  1  0
  6 13  4  0
  7  8  2  0
  7  9  4  0
  7 10  4  0
  7 13  2  0
  8 11  2  0
  8 13  1  0
  9 11  4  0
 10 12  1  0
 12 13  4  0
M  END
$$$$

 Created by Python create_sdf_string function

 28 10  0  0  0  0  0  0  0  0999 V2000
    3.8785   -9.4716   17.0101 C   0  0  0  0  0  0  0  0  0  0  0  0
   -0.4013   -5.0166   26.7821 C   0  0  0  0  0  0  0  0  0  0  0  0
    3.6250   -9.5473   17.4958 C   0  0  0  0  0  0  0  0  0  0  0  0
    6.2311   -8.3371   18.2987 C   0  0  0  0  0  0  0  0  0  0  0  0
    7.8624   -8.9190   16.2785 C   0  0  0  0  0  0  0  0  0  0  0  0
    2.9884   -4.8669   27.2415 C   0  0  0  0  0  0  0  0  0  0  0  0
    6.0433   -8.7267   17.6677 C   0  0  0  0  0  0  0  0  0  0  0  0
    6.1485  -10.0990   16.0631 C   0  0  0  0  0  0  0  0  0  0  0  0
    0.6900   -5.4024   26.7927 C   0  0  0  0  0  0  0  0  0  0  0  0
    2.5891   -8.0537   16.2382 C   0  0  0  0  0  0  0  0  0  0  0  0
    3.8760   -6.5777   26.7724 C   0  0  0  0  0  0  0  0  0  0  0  0
    1.6321   -8.1432   16.3354 C   0  0  0  0  0  0  0  0  0  0  0  0
    4.2972  -10.0644   16.6540 C   0  0  0  0  0  0  0  0  0  0  0  0
    0.2686   -2.7927   27.3459 C   0  0  0  0  0  0  0  0  0  0  0  0
    1.6817   -9.3670   17.0144 C   0  0  0  0  0  0  0  0  0  0  0  0
    1.3488   -4.9581   26.9649 C   0  0  0  0  0  0  0  0  0  0  0  0
   -0.3226   -3.4065   26.9011 C   0  0  0  0  0  0  0  0  0  0  0  0
    8.1682  -10.6165   15.4683 C   0  0  0  0  0  0  0  0  0  0  0  0
    2.4980   -6.3024   26.6883 C   0  0  0  0  0  0  0  0  0  0  0  0
    2.1471   -3.9532   27.3362 C   0  0  0  0  0  0  0  0  0  0  0  0
    6.7754   -9.3414   16.2244 C   0  0  0  0  0  0  0  0  0  0  0  0
    5.3379   -7.4582   26.9834 C   0  0  0  0  0  0  0  0  0  0  0  0
    7.4026  -10.8889   15.0953 C   0  0  0  0  0  0  0  0  0  0  0  0
    6.3527  -10.6027   16.0248 C   0  0  0  0  0  0  0  0  0  0  0  0
    4.7703   -7.0671   26.3733 C   0  0  0  0  0  0  0  0  0  0  0  0
    5.0697   -6.2347   27.1781 C   0  0  0  0  0  0  0  0  0  0  0  0
    1.7956   -9.4857   17.0017 C   0  0  0  0  0  0  0  0  0  0  0  0
    5.8239   -7.5804   27.2434 C   0  0  0  0  0  0  0  0  0  0  0  0
  1  3  4  0
  2  9  4  0
  4  7  4  0
  6 20  4  0
  9 16  4  0
 10 12  4  0
 14 17  4  0
 15 27  4  0
 18 23  4  0
 22 28  1  0
M  END
$$$$

 Created by Python create_sdf_string function

 28 31  0  0  0  0  0  0  0  0999 V2000
    4.5128   -9.8365   14.6463 F   0  0  0  0  0  0  0  0  0  0  0  0
    6.2567   -7.5653   17.4803 C   0  0  0  0  0  0  0  0  0  0  0  0
    7.5503   -8.1072   14.3413 O   0  0  0  0  0  0  0  0  0  0  0  0
    3.5772   -3.7012   26.5680 C   0  0  0  0  0  0  0  0  0  0  0  0
    6.3598  -10.4792   15.8008 P   0  0  0  0  0  0  0  0  0  0  0  0
    4.1147   -9.2405   17.4881 N   0  0  0  0  0  0  0  0  0  0  0  0
   -0.7734   -4.4369   26.6044 P   0  0  0  0  0  0  0  0  0  0  0  0
    1.9260   -4.4748   27.3339 O   0  0  0  0  0  0  0  0  0  0  0  0
   -0.9518   -3.1804   26.4082 C   0  0  0  0  0  0  0  0  0  0  0  0
    8.7383  -11.9016   14.9420 C   0  0  0  0  0  0  0  0  0  0  0  0
    6.4532  -11.3393   16.3115 N   0  0  0  0  0  0  0  0  0  0  0  0
    3.5136   -5.9343   26.2037 N   0  0  0  0  0  0  0  0  0  0  0  0
    4.4100   -7.5499   28.4062 S   0  0  0  0  0  0  0  0  0  0  0  0
   -1.0162   -7.1786   25.8942 He  0  0  0  0  0  0  0  0  0  0  0  0
    5.6416   -8.4994   17.1656 He  0  0  0  0  0  0  0  0  0  0  0  0
    6.7365   -8.4503   17.6622 He  0  0  0  0  0  0  0  0  0  0  0  0
    0.3295   -5.2507   26.4753 He  0  0  0  0  0  0  0  0  0  0  0  0
    1.5540   -8.8614   15.3346 He  0  0  0  0  0  0  0  0  0  0  0  0
    4.1009   -6.7593   26.9366 He  0  0  0  0  0  0  0  0  0  0  0  0
    1.1519   -8.9808   16.3688 He  0  0  0  0  0  0  0  0  0  0  0  0
    0.8920   -8.2708   16.0115 He  0  0  0  0  0  0  0  0  0  0  0  0
    1.9544   -7.3848   27.5200 He  0  0  0  0  0  0  0  0  0  0  0  0
    2.3070   -6.1436   28.1339 He  0  0  0  0  0  0  0  0  0  0  0  0
    6.1548   -9.4285   17.9346 He  0  0  0  0  0  0  0  0  0  0  0  0
    5.4403   -7.5945   26.1084 He  0  0  0  0  0  0  0  0  0  0  0  0
    5.4416  -10.5840   16.5606 He  0  0  0  0  0  0  0  0  0  0  0  0
    6.1319   -7.3346   26.9988 He  0  0  0  0  0  0  0  0  0  0  0  0
    1.9561   -9.6922   16.2681 He  0  0  0  0  0  0  0  0  0  0  0  0
  1  3  4  0
  1  7  4  0
  1  8  3  0
  1 10  1  0
  2  5  2  0
  2  6  4  0
  2  9  1  0
  2 10  4  0
  3  6  2  0
  3  8  1  0
  3  9  3  0
  3 12  1  0
  4  7  2  0
  4 11  2  0
  4 12  3  0
  4 13  3  0
  5  7  4  0
  5  9  4  0
  5 10  3  0
  5 13  3  0
  6 13  4  0
  7  9  3  0
  8  9  1  0
  8 11  4  0
  8 12  1  0
  8 13  4  0
  9 12  1  0
 10 11  1  0
 10 12  1  0
 11 12  4  0
 11 13  1  0
M  END
$$$$

 Created by Python create_sdf_string function

 28 10  0  0  0  0  0  0  0  0999 V2000
    3.9845   -9.5542   15.6501 C   0  0  0  0  0  0  0  0  0  0  0  0
   -0.2347   -5.8773   26.9113 C   0  0  0  0  0  0  0  0  0  0  0  0
    5.7182   -8.7491   17.0873 C   0  0  0  0  0  0  0  0  0  0  0  0
    6.2238   -7.9776   17.6885 C   0  0  0  0  0  0  0  0  0  0  0  0
    7.5253   -9.1282   15.3810 C   0  0  0  0  0  0  0  0  0  0  0  0
    2.9271   -4.4615   26.9310 C   0  0  0  0  0  0  0  0  0  0  0  0
    6.8856   -8.1976   17.5316 C   0  0  0  0  0  0  0  0  0  0  0  0
    6.8213  -10.5544   15.9404 C   0  0  0  0  0  0  0  0  0  0  0  0
    0.2962   -5.2704   27.0120 C   0  0  0  0  0  0  0  0  0  0  0  0
    2.1402   -8.8390   15.5993 C   0  0  0  0  0  0  0  0  0  0  0  0
    4.2010   -6.8011   27.0926 C   0  0  0  0  0  0  0  0  0  0  0  0
    1.5940   -9.0395   16.5355 C   0  0  0  0  0  0  0  0  0  0  0  0
    3.8723   -9.1178   17.1009 C   0  0  0  0  0  0  0  0  0  0  0  0
   -0.6007   -4.4289   26.8743 C   0  0  0  0  0  0  0  0  0  0  0  0
    1.3276   -8.6950   16.2148 C   0  0  0  0  0  0  0  0  0  0  0  0
    1.7018   -4.4939   26.9908 C   0  0  0  0  0  0  0  0  0  0  0  0
   -0.3824   -3.7299   26.8034 C   0  0  0  0  0  0  0  0  0  0  0  0
    7.8713  -11.2023   15.4093 C   0  0  0  0  0  0  0  0  0  0  0  0
    2.1269   -7.0739   27.2846 C   0  0  0  0  0  0  0  0  0  0  0  0
    2.0208   -6.2471   27.2976 C   0  0  0  0  0  0  0  0  0  0  0  0
    5.8329   -9.0920   17.5491 C   0  0  0  0  0  0  0  0  0  0  0  0
    5.0694   -7.3301   26.2926 C   0  0  0  0  0  0  0  0  0  0  0  0
    6.7848  -10.9272   15.9791 C   0  0  0  0  0  0  0  0  0  0  0  0
    5.5577  -10.2578   16.4435 C   0  0  0  0  0  0  0  0  0  0  0  0
    3.2495   -6.1011   26.8645 C   0  0  0  0  0  0  0  0  0  0  0  0
    5.6198   -7.1844   27.0247 C   0  0  0  0  0  0  0  0  0  0  0  0
    2.3889   -9.4318   16.7330 C   0  0  0  0  0  0  0  0  0  0  0  0
    4.3169   -7.4989   27.7264 C   0  0  0  0  0  0  0  0  0  0  0  0
  1 10  4  0
  2  9  1  0
 10 15  4  0
 12 15  4  0
 12 27  4  0
 13 27  4  0
 14 17  1  0
 18 23  1  0
 19 20  1  0
 22 26  1  0
M  END
$$$$

 Created by Python create_sdf_string function

 28 49  0  0  0  0  0  0  0  0999 V2000
    4.8165  -10.4959   14.0484 Cl  0  0  0  0  0  0  0  0  0  0  0  0
    1.4636   -6.6972   26.8060 C   0  0  0  0  0  0  0  0  0  0  0  0
    7.0339   -7.3139   15.9704 C   0  0  0  0  0  0  0  0  0  0  0  0
    6.4527  -10.8938   16.0211 S   0  0  0  0  0  0  0  0  0  0  0  0
    2.4208   -9.5116   15.2088 O   0  0  0  0  0  0  0  0  0  0  0  0
    5.4471   -7.2955   27.7878 B   0  0  0  0  0  0  0  0  0  0  0  0
    4.1758   -8.6645   16.6089 C   0  0  0  0  0  0  0  0  0  0  0  0
   -0.2705   -3.6508   26.4938 F   0  0  0  0  0  0  0  0  0  0  0  0
    3.0106   -8.1825   16.0855 O   0  0  0  0  0  0  0  0  0  0  0  0
   -3.0410   -3.8294   27.0811 O   0  0  0  0  0  0  0  0  0  0  0  0
    1.5423   -5.3361   26.3728 S   0  0  0  0  0  0  0  0  0  0  0  0
    4.4636   -7.5060   26.5260 F   0  0  0  0  0  0  0  0  0  0  0  0
    7.2854  -10.7742   15.1861 O   0  0  0  0  0  0  0  0  0  0  0  0
    4.6103  -12.2780   16.0081 O   0  0  0  0  0  0  0  0  0  0  0  0
    2.6317   -9.0113   16.7261 N   0  0  0  0  0  0  0  0  0  0  0  0
    4.4750   -8.4624   28.1784 C   0  0  0  0  0  0  0  0  0  0  0  0
    5.3405   -8.1320   16.5613 He  0  0  0  0  0  0  0  0  0  0  0  0
    8.5679   -9.1730   15.4773 He  0  0  0  0  0  0  0  0  0  0  0  0
    3.1182   -2.4580   26.6540 He  0  0  0  0  0  0  0  0  0  0  0  0
    6.9256   -9.2254   18.1607 He  0  0  0  0  0  0  0  0  0  0  0  0
    1.1045   -6.8907   27.1751 He  0  0  0  0  0  0  0  0  0  0  0  0
    2.6374   -9.1158   16.3497 He  0  0  0  0  0  0  0  0  0  0  0  0
    1.3916   -4.3092   27.0752 He  0  0  0  0  0  0  0  0  0  0  0  0
    8.1326  -11.1945   14.0760 He  0  0  0  0  0  0  0  0  0  0  0  0
    3.2792   -7.1935   26.7457 He  0  0  0  0  0  0  0  0  0  0  0  0
    4.3809   -8.7486   16.7958 He  0  0  0  0  0  0  0  0  0  0  0  0
    2.2515   -4.6478   25.8294 He  0  0  0  0  0  0  0  0  0  0  0  0
    4.5429   -6.5968   26.5822 He  0  0  0  0  0  0  0  0  0  0  0  0
  1  6  4  0
  1 10  2  0
  1 11  1  0
  1 12  4  0
  1 13  3  0
  1 16  4  0
  2  3  2  0
  2  4  3  0
  2  5  4  0
  2  7  2  0
  2 13  3  0
  2 14  3  0
  2 15  1  0
  3  5  4  0
  3  7  1  0
  3 15  1  0
  4  5  4  0
  4  6  4  0
  4  7  1  0
  4  9  3  0
  4 12  3  0
  4 13  4  0
  5  6  2  0
  5  7  2  0
  5  8  3  0
  5 14  2  0
  5 16  3  0
  6  7  2  0
  6 10  4  0
  6 11  4  0
  6 14  2  0
  6 15  3  0
  7  9  4  0
  7 10  4  0
  7 11  4  0
  7 13  1  0
  7 15  4  0
  8 15  4  0
  9 10  4  0
  9 14  4  0
 10 11  2  0
 10 13  4  0
 10 14  3  0
 10 16  4  0
 12 13  3  0
 12 14  3  0
 12 15  1  0
 13 16  1  0
 15 16  2  0
M  END
$$$$

 Created by Python create_sdf_string function

 28  2  0  0  0  0  0  0  0  0999 V2000
    5.3147  -10.8532   14.9569 C   0  0  0  0  0  0  0  0  0  0  0  0
    1.6857   -6.4692   27.0167 C   0  0  0  0  0  0  0  0  0  0  0  0
    6.9567   -8.0784   16.4577 C   0  0  0  0  0  0  0  0  0  0  0  0
    5.4061   -8.3802   16.6915 C   0  0  0  0  0  0  0  0  0  0  0  0
    7.9082   -9.6024   15.8577 C   0  0  0  0  0  0  0  0  0  0  0  0
    2.3851   -3.4395   26.9142 C   0  0  0  0  0  0  0  0  0  0  0  0
    6.5894   -8.7954   17.5230 C   0  0  0  0  0  0  0  0  0  0  0  0
    6.3777  -10.4680   15.8943 C   0  0  0  0  0  0  0  0  0  0  0  0
    1.0862   -6.4530   27.1313 C   0  0  0  0  0  0  0  0  0  0  0  0
    2.7473   -9.7491   15.5580 C   0  0  0  0  0  0  0  0  0  0  0  0
    5.2408   -7.1296   27.2184 C   0  0  0  0  0  0  0  0  0  0  0  0
    4.1841   -8.8744   16.5092 C   0  0  0  0  0  0  0  0  0  0  0  0
    2.4437   -8.9663   16.3622 C   0  0  0  0  0  0  0  0  0  0  0  0
   -0.1896   -3.9449   26.9033 C   0  0  0  0  0  0  0  0  0  0  0  0
    3.0647   -8.3097   16.3584 C   0  0  0  0  0  0  0  0  0  0  0  0
    0.9486   -4.2483   26.9949 C   0  0  0  0  0  0  0  0  0  0  0  0
   -1.3402   -4.3540   26.9359 O   0  0  0  0  0  0  0  0  0  0  0  0
    7.6162  -10.9611   14.8145 C   0  0  0  0  0  0  0  0  0  0  0  0
    3.1383   -7.0333   26.9659 C   0  0  0  0  0  0  0  0  0  0  0  0
    1.0110   -5.1697   26.9679 C   0  0  0  0  0  0  0  0  0  0  0  0
    4.6855   -8.9183   16.6370 C   0  0  0  0  0  0  0  0  0  0  0  0
    4.5149   -7.2979   26.7598 C   0  0  0  0  0  0  0  0  0  0  0  0
    7.1042  -10.7688   15.4810 C   0  0  0  0  0  0  0  0  0  0  0  0
    4.9616  -11.4808   15.7892 C   0  0  0  0  0  0  0  0  0  0  0  0
    2.3473   -4.8637   26.8744 C   0  0  0  0  0  0  0  0  0  0  0  0
    4.4779   -6.5506   26.9574 C   0  0  0  0  0  0  0  0  0  0  0  0
    2.4335   -9.0625   16.5665 C   0  0  0  0  0  0  0  0  0  0  0  0
    4.1832   -8.0082   27.4907 C   0  0  0  0  0  0  0  0  0  0  0  0
  2  9  4  0
 13 27  4  0
M  END
$$$$

 Created by Python create_sdf_string function

 28 34  0  0  0  0  0  0  0  0999 V2000
    5.0476  -12.4931   14.1004 C   0  0  0  0  0  0  0  0  0  0  0  0
    5.4050   -7.5477   16.1137 C   0  0  0  0  0  0  0  0  0  0  0  0
    8.5887   -8.3552   18.7829 N   0  0  0  0  0  0  0  0  0  0  0  0
    4.7352  -11.1225   16.9824 F   0  0  0  0  0  0  0  0  0  0  0  0
    1.4315   -6.7071   26.2246 C   0  0  0  0  0  0  0  0  0  0  0  0
    2.0918   -9.3111   15.0043 N   0  0  0  0  0  0  0  0  0  0  0  0
    7.4181   -8.7330   27.3464 O   0  0  0  0  0  0  0  0  0  0  0  0
    5.0285   -9.1940   18.2002 Cl  0  0  0  0  0  0  0  0  0  0  0  0
   -0.6855   -2.8523   26.5957 F   0  0  0  0  0  0  0  0  0  0  0  0
    0.7748   -5.1540   27.3443 C   0  0  0  0  0  0  0  0  0  0  0  0
    5.3260  -10.8602   14.5521 C   0  0  0  0  0  0  0  0  0  0  0  0
    3.8678   -6.7588   26.5789 C   0  0  0  0  0  0  0  0  0  0  0  0
    2.2810   -9.5682   15.8697 F   0  0  0  0  0  0  0  0  0  0  0  0
    4.9649   -7.8633   27.8197 N   0  0  0  0  0  0  0  0  0  0  0  0
    1.9582   -6.5170   27.2418 He  0  0  0  0  0  0  0  0  0  0  0  0
    6.5266   -7.7778   16.5731 He  0  0  0  0  0  0  0  0  0  0  0  0
    8.2973  -10.1695   14.4994 He  0  0  0  0  0  0  0  0  0  0  0  0
    2.0508   -2.4225   27.2393 He  0  0  0  0  0  0  0  0  0  0  0  0
    2.7088   -9.5280   15.4362 He  0  0  0  0  0  0  0  0  0  0  0  0
    1.7613   -8.2794   15.9264 He  0  0  0  0  0  0  0  0  0  0  0  0
    0.9111   -4.7048   27.5955 He  0  0  0  0  0  0  0  0  0  0  0  0
   -2.0003   -3.6466   26.7448 He  0  0  0  0  0  0  0  0  0  0  0  0
    6.6780  -11.1866   14.4954 He  0  0  0  0  0  0  0  0  0  0  0  0
    3.2862   -8.3582   27.4279 He  0  0  0  0  0  0  0  0  0  0  0  0
    3.5856   -8.7917   16.7208 He  0  0  0  0  0  0  0  0  0  0  0  0
    5.4164   -6.4195   26.3896 He  0  0  0  0  0  0  0  0  0  0  0  0
    5.9818  -10.1415   17.5033 He  0  0  0  0  0  0  0  0  0  0  0  0
    2.7223   -5.3245   26.7721 He  0  0  0  0  0  0  0  0  0  0  0  0
  1  3  2  0
  1  6  3  0
  1  7  1  0
  1  8  4  0
  1 11  2  0
  1 13  1  0
  2  4  4  0
  2  7  2  0
  2  8  2  0
  2  9  2  0
  2 12  4  0
  3  4  4  0
  3  6  3  0
  3  9  3  0
  4  5  3  0
  4  7  4  0
  4  8  3  0
  4 11  4  0
  5  6  4  0
  5  7  3  0
  5  8  2  0
  5  9  2  0
  6  8  2  0
  6 13  4  0
  7  9  2  0
  7 10  2  0
  7 12  2  0
  8 11  1  0
  8 12  1  0
  9 11  2  0
 10 11  4  0
 10 12  4  0
 11 12  4  0
 11 14  4  0
M  END
$$$$

 Created by Python create_sdf_string function

 28  7  0  0  0  0  0  0  0  0999 V2000
    5.2768  -11.5676   14.4584 C   0  0  0  0  0  0  0  0  0  0  0  0
    2.0433   -6.0584   27.1070 C   0  0  0  0  0  0  0  0  0  0  0  0
    6.6389   -8.2066   17.0075 C   0  0  0  0  0  0  0  0  0  0  0  0
    5.3720   -8.4411   16.7805 C   0  0  0  0  0  0  0  0  0  0  0  0
    7.4072  -10.3888   15.4516 C   0  0  0  0  0  0  0  0  0  0  0  0
    1.3139   -3.3013   27.0614 C   0  0  0  0  0  0  0  0  0  0  0  0
    7.3807   -8.2223   17.8145 C   0  0  0  0  0  0  0  0  0  0  0  0
    5.0169  -10.2066   16.3023 C   0  0  0  0  0  0  0  0  0  0  0  0
    1.9733   -6.4241   26.9586 C   0  0  0  0  0  0  0  0  0  0  0  0
    2.2689   -9.3311   15.4562 C   0  0  0  0  0  0  0  0  0  0  0  0
    5.9023   -7.7948   26.8658 C   0  0  0  0  0  0  0  0  0  0  0  0
    5.7330   -8.8765   18.0817 C   0  0  0  0  0  0  0  0  0  0  0  0
    2.9677   -9.5524   15.6743 C   0  0  0  0  0  0  0  0  0  0  0  0
   -0.2084   -3.2684   26.9535 C   0  0  0  0  0  0  0  0  0  0  0  0
    1.9422   -8.4366   16.1440 C   0  0  0  0  0  0  0  0  0  0  0  0
    0.8142   -4.6294   27.1575 C   0  0  0  0  0  0  0  0  0  0  0  0
   -0.9924   -3.9620   26.9016 C   0  0  0  0  0  0  0  0  0  0  0  0
    6.6400  -11.0440   15.0561 C   0  0  0  0  0  0  0  0  0  0  0  0
    3.6445   -7.8610   27.1249 C   0  0  0  0  0  0  0  0  0  0  0  0
    0.5005   -5.1102   27.1339 C   0  0  0  0  0  0  0  0  0  0  0  0
    3.6027   -8.7676   16.5049 C   0  0  0  0  0  0  0  0  0  0  0  0
    5.2214   -6.7350   26.7623 C   0  0  0  0  0  0  0  0  0  0  0  0
    6.0515   -9.5496   17.0377 C   0  0  0  0  0  0  0  0  0  0  0  0
    5.4422  -11.0057   15.1406 C   0  0  0  0  0  0  0  0  0  0  0  0
    2.7270   -5.3910   26.9864 C   0  0  0  0  0  0  0  0  0  0  0  0
    3.9842   -6.8079   26.9111 C   0  0  0  0  0  0  0  0  0  0  0  0
    2.3706   -9.2335   15.8090 C   0  0  0  0  0  0  0  0  0  0  0  0
    4.8774   -7.9139   27.2708 C   0  0  0  0  0  0  0  0  0  0  0  0
  1 24  4  0
  5 18  1  0
 10 27  4  0
 11 22  4  0
 13 27  4  0
 14 17  4  0
 16 20  4  0
M  END
$$$$

 Created by Python create_sdf_string function

 28 46  0  0  0  0  0  0  0  0999 V2000
    5.4856  -10.9588   15.4802 C   0  0  0  0  0  0  0  0  0  0  0  0
    7.4549   -8.3335   15.6590 Cl  0  0  0  0  0  0  0  0  0  0  0  0
    5.5333   -9.9411   19.1996 N   0  0  0  0  0  0  0  0  0  0  0  0
    0.4256   -2.7448   27.3068 C   0  0  0  0  0  0  0  0  0  0  0  0
    6.7118   -7.3388   18.0213 S   0  0  0  0  0  0  0  0  0  0  0  0
    3.8780   -6.9449   27.1931 P   0  0  0  0  0  0  0  0  0  0  0  0
    4.7680   -7.3383   18.8706 O   0  0  0  0  0  0  0  0  0  0  0  0
    4.8328   -7.7179   17.4843 C   0  0  0  0  0  0  0  0  0  0  0  0
   -0.1691   -3.5775   26.5712 C   0  0  0  0  0  0  0  0  0  0  0  0
   -0.4375   -3.2301   27.4642 C   0  0  0  0  0  0  0  0  0  0  0  0
    7.1912  -10.8997   15.0213 C   0  0  0  0  0  0  0  0  0  0  0  0
    1.1112   -4.3906   27.5016 F   0  0  0  0  0  0  0  0  0  0  0  0
    4.1749   -8.5828   15.6078 Br  0  0  0  0  0  0  0  0  0  0  0  0
    4.1066  -10.7181   14.9164 S   0  0  0  0  0  0  0  0  0  0  0  0
    3.2855   -4.9723   26.3097 C   0  0  0  0  0  0  0  0  0  0  0  0
    3.6383   -7.5823   27.0773 C   0  0  0  0  0  0  0  0  0  0  0  0
    1.8721   -6.2983   26.7365 He  0  0  0  0  0  0  0  0  0  0  0  0
    7.0966  -10.3794   16.2960 He  0  0  0  0  0  0  0  0  0  0  0  0
    2.8315  -10.0672   14.9658 He  0  0  0  0  0  0  0  0  0  0  0  0
    4.4553   -9.1398   16.0986 He  0  0  0  0  0  0  0  0  0  0  0  0
    4.7014   -8.0079   26.7231 He  0  0  0  0  0  0  0  0  0  0  0  0
    3.4195   -9.9757   17.2581 He  0  0  0  0  0  0  0  0  0  0  0  0
    1.0558   -4.3898   27.8763 He  0  0  0  0  0  0  0  0  0  0  0  0
    5.3610   -8.7192   26.5144 He  0  0  0  0  0  0  0  0  0  0  0  0
    2.8088   -9.3622   26.8319 He  0  0  0  0  0  0  0  0  0  0  0  0
    6.1956  -11.6119   16.4933 He  0  0  0  0  0  0  0  0  0  0  0  0
   -0.6045   -9.3894   15.2245 He  0  0  0  0  0  0  0  0  0  0  0  0
    4.2007   -8.0433   27.6070 He  0  0  0  0  0  0  0  0  0  0  0  0
  1  4  4  0
  1  8  2  0
  1 10  3  0
  1 13  4  0
  1 15  2  0
  2  6  2  0
  2 10  2  0
  2 12  3  0
  2 13  4  0
  2 14  1  0
  2 16  4  0
  3  6  3  0
  3  7  2  0
  3  8  1  0
  3 10  4  0
  4  8  4  0
  4 12  2  0
  4 13  4  0
  5  9  4  0
  5 12  3  0
  5 13  1  0
  5 16  4  0
  6  7  1  0
  6  8  3  0
  6 10  2  0
  6 11  2  0
  6 14  4  0
  7  9  2  0
  7 10  1  0
  7 11  2  0
  7 13  2  0
  7 14  3  0
  7 15  1  0
  8 11  3  0
  8 16  1  0
  9 11  3  0
  9 13  3  0
  9 14  3  0
  9 15  2  0
 10 11  2  0
 10 14  1  0
 10 16  3  0
 11 12  3  0
 11 14  2  0
 13 14  3  0
 15 16  3  0
M  END
$$$$

 Created by Python create_sdf_string function

 28  4  0  0  0  0  0  0  0  0999 V2000
    5.3241  -10.6203   15.6568 C   0  0  0  0  0  0  0  0  0  0  0  0
    1.7429   -5.8849   26.9892 C   0  0  0  0  0  0  0  0  0  0  0  0
    7.0989   -8.8594   16.4424 C   0  0  0  0  0  0  0  0  0  0  0  0
    5.5523   -9.1491   18.3042 C   0  0  0  0  0  0  0  0  0  0  0  0
    7.0023  -10.2338   16.1406 C   0  0  0  0  0  0  0  0  0  0  0  0
    0.6113   -3.1399   27.2028 C   0  0  0  0  0  0  0  0  0  0  0  0
    6.7261   -7.7155   17.7871 C   0  0  0  0  0  0  0  0  0  0  0  0
    2.5255   -9.7860   15.3185 C   0  0  0  0  0  0  0  0  0  0  0  0
    3.9843   -6.6546   27.0398 C   0  0  0  0  0  0  0  0  0  0  0  0
    4.0030   -9.3388   16.2724 C   0  0  0  0  0  0  0  0  0  0  0  0
    4.5595   -7.4479   26.7548 C   0  0  0  0  0  0  0  0  0  0  0  0
    5.6901   -8.0632   18.3294 O   0  0  0  0  0  0  0  0  0  0  0  0
    5.4223   -8.4306   17.4127 C   0  0  0  0  0  0  0  0  0  0  0  0
    0.1079   -3.7806   26.8864 C   0  0  0  0  0  0  0  0  0  0  0  0
    3.0499   -9.6071   16.7948 C   0  0  0  0  0  0  0  0  0  0  0  0
    1.1693   -4.4689   27.3847 C   0  0  0  0  0  0  0  0  0  0  0  0
   -0.0783   -3.6498   27.3729 C   0  0  0  0  0  0  0  0  0  0  0  0
    6.9981  -10.8338   15.4070 C   0  0  0  0  0  0  0  0  0  0  0  0
    5.0983   -7.8544   26.5967 C   0  0  0  0  0  0  0  0  0  0  0  0
    0.9435   -4.3471   27.3482 C   0  0  0  0  0  0  0  0  0  0  0  0
    3.8704   -9.0286   15.8762 C   0  0  0  0  0  0  0  0  0  0  0  0
    2.9817   -8.2087   26.9065 C   0  0  0  0  0  0  0  0  0  0  0  0
    6.1626  -10.9244   16.0890 C   0  0  0  0  0  0  0  0  0  0  0  0
    4.0457  -10.6714   15.3275 C   0  0  0  0  0  0  0  0  0  0  0  0
    2.6198   -5.3817   26.9807 C   0  0  0  0  0  0  0  0  0  0  0  0
    3.5223   -7.5686   26.9878 C   0  0  0  0  0  0  0  0  0  0  0  0
    1.2371   -9.4016   15.5983 C   0  0  0  0  0  0  0  0  0  0  0  0
    4.0052   -7.6489   27.2942 C   0  0  0  0  0  0  0  0  0  0  0  0
  2 25  4  0
  6 14  4  0
  8 27  1  0
 22 26  4  0
M  END
$$$$

 Created by Python create_sdf_string function

 28  8  0  0  0  0  0  0  0  0999 V2000
    2.2121   -4.4834   26.4444 C   0  0  0  0  0  0  0  0  0  0  0  0
    7.4440  -10.1813   16.1432 N   0  0  0  0  0  0  0  0  0  0  0  0
    8.0549   -9.6366   15.1243 C   0  0  0  0  0  0  0  0  0  0  0  0
    3.2124   -6.9646   26.1304 N   0  0  0  0  0  0  0  0  0  0  0  0
    3.8443   -7.5730   16.7925 F   0  0  0  0  0  0  0  0  0  0  0  0
    1.5111   -4.9191   26.9935 Br  0  0  0  0  0  0  0  0  0  0  0  0
    2.1225   -4.1797   26.0759 O   0  0  0  0  0  0  0  0  0  0  0  0
    3.3262   -8.1674   13.6701 B   0  0  0  0  0  0  0  0  0  0  0  0
    4.5160  -10.5772   16.6368 Se  0  0  0  0  0  0  0  0  0  0  0  0
    4.2594  -12.0079   15.2293 He  0  0  0  0  0  0  0  0  0  0  0  0
    5.8977   -9.1683   17.0544 He  0  0  0  0  0  0  0  0  0  0  0  0
    0.9461   -2.9846   27.1090 He  0  0  0  0  0  0  0  0  0  0  0  0
    5.7342   -9.1823   18.9393 He  0  0  0  0  0  0  0  0  0  0  0  0
    2.5357  -10.0196   14.3261 He  0  0  0  0  0  0  0  0  0  0  0  0
    4.7486   -8.2877   25.9365 He  0  0  0  0  0  0  0  0  0  0  0  0
    4.8713   -6.4162   18.5963 He  0  0  0  0  0  0  0  0  0  0  0  0
    5.1867   -8.6050   17.3884 He  0  0  0  0  0  0  0  0  0  0  0  0
   -0.0405   -4.8718   26.3446 He  0  0  0  0  0  0  0  0  0  0  0  0
    1.9831   -9.1346   17.6154 He  0  0  0  0  0  0  0  0  0  0  0  0
    1.3520   -3.4129   27.6217 He  0  0  0  0  0  0  0  0  0  0  0  0
    7.6792   -9.5322   13.7362 He  0  0  0  0  0  0  0  0  0  0  0  0
    5.1117   -7.6945   25.6042 He  0  0  0  0  0  0  0  0  0  0  0  0
    0.2286   -7.9134   26.6033 He  0  0  0  0  0  0  0  0  0  0  0  0
    6.2607  -10.8655   15.3597 He  0  0  0  0  0  0  0  0  0  0  0  0
    1.1197   -5.5086   25.2501 He  0  0  0  0  0  0  0  0  0  0  0  0
    3.3416   -8.0616   27.1560 He  0  0  0  0  0  0  0  0  0  0  0  0
    1.3707  -11.4824   16.0986 He  0  0  0  0  0  0  0  0  0  0  0  0
    3.6319   -6.1415   26.6729 He  0  0  0  0  0  0  0  0  0  0  0  0
  2  3  4  0
  2  4  1  0
  3  5  4  0
  3  8  2  0
  4  5  4  0
  5  9  3  0
  6  8  1  0
  7  9  3  0
M  END
$$$$

 Created by Python create_sdf_string function

 28  6  0  0  0  0  0  0  0  0999 V2000
    4.1044  -11.0702   15.2741 C   0  0  0  0  0  0  0  0  0  0  0  0
    2.2230   -4.6403   26.9526 C   0  0  0  0  0  0  0  0  0  0  0  0
    7.2271  -10.1591   15.9609 C   0  0  0  0  0  0  0  0  0  0  0  0
    5.8046   -9.3260   16.8193 C   0  0  0  0  0  0  0  0  0  0  0  0
    7.4534  -10.2076   15.5134 C   0  0  0  0  0  0  0  0  0  0  0  0
    0.8257   -2.9617   27.2314 C   0  0  0  0  0  0  0  0  0  0  0  0
    5.8221   -8.6105   18.2122 C   0  0  0  0  0  0  0  0  0  0  0  0
    3.0046  -10.0261   14.7258 C   0  0  0  0  0  0  0  0  0  0  0  0
    3.3992   -7.0440   26.4620 N   0  0  0  0  0  0  0  0  0  0  0  0
    4.0273   -8.3664   16.8816 C   0  0  0  0  0  0  0  0  0  0  0  0
    4.3917   -7.7339   26.3200 C   0  0  0  0  0  0  0  0  0  0  0  0
    5.4128   -7.9407   18.1745 C   0  0  0  0  0  0  0  0  0  0  0  0
    4.9642   -9.0826   17.0847 C   0  0  0  0  0  0  0  0  0  0  0  0
    0.0459   -4.8660   26.9717 C   0  0  0  0  0  0  0  0  0  0  0  0
    2.4707   -9.4029   16.8556 C   0  0  0  0  0  0  0  0  0  0  0  0
    1.3265   -5.0699   27.0545 C   0  0  0  0  0  0  0  0  0  0  0  0
    1.0775   -3.0560   27.4638 C   0  0  0  0  0  0  0  0  0  0  0  0
    7.1385   -9.9966   14.4105 C   0  0  0  0  0  0  0  0  0  0  0  0
    4.7274   -7.3933   26.0870 C   0  0  0  0  0  0  0  0  0  0  0  0
    2.2538   -3.9682   26.9646 C   0  0  0  0  0  0  0  0  0  0  0  0
    3.2912   -9.2818   14.4466 C   0  0  0  0  0  0  0  0  0  0  0  0
    1.1087   -7.3773   27.1154 C   0  0  0  0  0  0  0  0  0  0  0  0
    6.1387  -10.6231   15.4977 C   0  0  0  0  0  0  0  0  0  0  0  0
    4.4998  -10.0483   16.2552 C   0  0  0  0  0  0  0  0  0  0  0  0
    1.2741   -5.7215   26.8165 C   0  0  0  0  0  0  0  0  0  0  0  0
    3.0356   -7.9655   26.9571 C   0  0  0  0  0  0  0  0  0  0  0  0
    2.1802  -10.7100   16.0275 C   0  0  0  0  0  0  0  0  0  0  0  0
    3.6000   -6.2224   26.7874 C   0  0  0  0  0  0  0  0  0  0  0  0
  2 20  4  0
  3  5  4  0
  6 17  4  0
  7 12  4  0
  8 21  1  0
 11 19  1  0
M  END
$$$$

 Created by Python create_sdf_string function

 28 47  0  0  0  0  0  0  0  0999 V2000
    3.0453  -12.5704   15.0976 N   0  0  0  0  0  0  0  0  0  0  0  0
    7.2708  -10.3883   16.5456 C   0  0  0  0  0  0  0  0  0  0  0  0
    6.2097   -9.1759   17.1381 C   0  0  0  0  0  0  0  0  0  0  0  0
    6.0451   -7.8325   27.3972 N   0  0  0  0  0  0  0  0  0  0  0  0
    5.7107   -7.8820   17.3547 C   0  0  0  0  0  0  0  0  0  0  0  0
   -0.4217   -5.7544   27.4908 C   0  0  0  0  0  0  0  0  0  0  0  0
    2.5307  -11.0114   17.3180 C   0  0  0  0  0  0  0  0  0  0  0  0
    1.8010   -5.2302   26.0777 P   0  0  0  0  0  0  0  0  0  0  0  0
    0.3876   -3.9198   26.9535 Cl  0  0  0  0  0  0  0  0  0  0  0  0
    6.5480  -10.3182   15.4842 O   0  0  0  0  0  0  0  0  0  0  0  0
    4.8535   -7.5775   24.1837 Br  0  0  0  0  0  0  0  0  0  0  0  0
    3.6165   -3.4051   26.5679 C   0  0  0  0  0  0  0  0  0  0  0  0
    1.6003  -11.6485   15.7557 F   0  0  0  0  0  0  0  0  0  0  0  0
    5.0094   -9.6694   16.7699 Se  0  0  0  0  0  0  0  0  0  0  0  0
    1.2321   -5.6048   26.7706 F   0  0  0  0  0  0  0  0  0  0  0  0
    4.1712   -8.7103   26.2024 N   0  0  0  0  0  0  0  0  0  0  0  0
    1.1981  -11.0240   16.0354 C   0  0  0  0  0  0  0  0  0  0  0  0
    2.1602   -4.7529   26.8612 He  0  0  0  0  0  0  0  0  0  0  0  0
    7.3936   -9.9516   15.1837 He  0  0  0  0  0  0  0  0  0  0  0  0
    1.8004   -2.3715   28.5789 He  0  0  0  0  0  0  0  0  0  0  0  0
    7.8732   -9.7086   19.4257 He  0  0  0  0  0  0  0  0  0  0  0  0
    3.2446   -9.0739   14.9548 He  0  0  0  0  0  0  0  0  0  0  0  0
    3.1881   -5.3458   24.9117 He  0  0  0  0  0  0  0  0  0  0  0  0
    3.9316   -8.3629   16.3789 He  0  0  0  0  0  0  0  0  0  0  0  0
    6.1063   -8.1187   18.8561 He  0  0  0  0  0  0  0  0  0  0  0  0
    0.7725   -7.4607   27.3314 He  0  0  0  0  0  0  0  0  0  0  0  0
    5.3957  -10.6779   13.6148 He  0  0  0  0  0  0  0  0  0  0  0  0
    3.6284   -6.1053   27.9903 He  0  0  0  0  0  0  0  0  0  0  0  0
  1  2  1  0
  1  6  2  0
  1 12  1  0
  1 13  3  0
  1 14  4  0
  2  3  3  0
  2  8  4  0
  2 11  2  0
  2 14  4  0
  2 15  3  0
  3  5  4  0
  3  6  3  0
  3  7  1  0
  3  8  3  0
  3  9  3  0
  3 14  3  0
  3 15  3  0
  4  7  2  0
  4  8  1  0
  4  9  4  0
  4 11  1  0
  4 12  4  0
  4 17  1  0
  5  9  2  0
  5 17  3  0
  6 10  1  0
  6 13  4  0
  6 16  3  0
  6 17  3  0
  7 14  2  0
  8  9  2  0
  8 10  1  0
  8 12  1  0
  8 17  3  0
  9 10  3  0
  9 13  1  0
  9 17  1  0
 10 13  1  0
 10 15  4  0
 10 17  3  0
 11 12  2  0
 11 15  4  0
 11 16  3  0
 13 14  2  0
 14 16  4  0
 15 17  2  0
 16 17  4  0
M  END
$$$$

 Created by Python create_sdf_string function

 28  8  0  0  0  0  0  0  0  0999 V2000
    3.2460  -11.8280   15.3748 C   0  0  0  0  0  0  0  0  0  0  0  0
    2.1930   -4.7472   27.1375 C   0  0  0  0  0  0  0  0  0  0  0  0
    6.6949   -9.9073   16.4935 C   0  0  0  0  0  0  0  0  0  0  0  0
    5.8582   -9.1244   17.1187 C   0  0  0  0  0  0  0  0  0  0  0  0
    6.7247  -10.6826   15.4466 C   0  0  0  0  0  0  0  0  0  0  0  0
    1.6075   -2.8289   27.6199 C   0  0  0  0  0  0  0  0  0  0  0  0
    7.0055   -8.3912   18.3867 C   0  0  0  0  0  0  0  0  0  0  0  0
    3.3913   -9.9676   15.6404 C   0  0  0  0  0  0  0  0  0  0  0  0
    3.4589   -6.4990   26.2681 C   0  0  0  0  0  0  0  0  0  0  0  0
    4.0192   -9.1656   16.6560 C   0  0  0  0  0  0  0  0  0  0  0  0
    5.2220   -7.2706   26.8304 C   0  0  0  0  0  0  0  0  0  0  0  0
    6.1882   -8.3568   18.4810 C   0  0  0  0  0  0  0  0  0  0  0  0
    5.6180   -8.2226   17.7822 C   0  0  0  0  0  0  0  0  0  0  0  0
   -0.0588   -5.4772   27.3683 C   0  0  0  0  0  0  0  0  0  0  0  0
    2.6421  -10.4865   16.9224 C   0  0  0  0  0  0  0  0  0  0  0  0
    2.0724   -5.1843   26.9850 C   0  0  0  0  0  0  0  0  0  0  0  0
    0.4851   -3.8030   27.3263 C   0  0  0  0  0  0  0  0  0  0  0  0
    6.6317  -10.7067   15.6521 C   0  0  0  0  0  0  0  0  0  0  0  0
    4.5996   -7.6471   25.7163 C   0  0  0  0  0  0  0  0  0  0  0  0
    3.0255   -3.7340   27.2086 C   0  0  0  0  0  0  0  0  0  0  0  0
    2.0363  -11.3923   15.7456 C   0  0  0  0  0  0  0  0  0  0  0  0
    1.0726   -6.9608   27.2580 C   0  0  0  0  0  0  0  0  0  0  0  0
    5.1466  -11.0698   14.7548 C   0  0  0  0  0  0  0  0  0  0  0  0
    4.8866   -9.6985   16.6150 C   0  0  0  0  0  0  0  0  0  0  0  0
    1.0626   -5.8231   27.1844 C   0  0  0  0  0  0  0  0  0  0  0  0
    3.7850   -7.9396   26.3837 N   0  0  0  0  0  0  0  0  0  0  0  0
    1.6540  -10.8440   15.8508 C   0  0  0  0  0  0  0  0  0  0  0  0
    3.8174   -6.3628   27.2032 C   0  0  0  0  0  0  0  0  0  0  0  0
  2 16  4  0
  4 13  4  0
  5 18  4  0
  6 17  4  0
  7 12  4  0
  9 28  4  0
 12 13  4  0
 21 27  1  0
M  END
$$$$

 Created by Python create_sdf_string function

 28 41  0  0  0  0  0  0  0  0999 V2000
    6.2937  -10.0145   17.5035 P   0  0  0  0  0  0  0  0  0  0  0  0
    5.8417   -6.7540   15.6976 C   0  0  0  0  0  0  0  0  0  0  0  0
    5.8234   -9.7021   17.0987 P   0  0  0  0  0  0  0  0  0  0  0  0
    1.5010   -3.3281   28.8524 F   0  0  0  0  0  0  0  0  0  0  0  0
    3.6817   -5.3302   26.0398 P   0  0  0  0  0  0  0  0  0  0  0  0
    6.5509   -6.6067   27.7868 C   0  0  0  0  0  0  0  0  0  0  0  0
    3.3618   -9.1073   16.9450 C   0  0  0  0  0  0  0  0  0  0  0  0
   -0.5220   -2.4748   27.5155 C   0  0  0  0  0  0  0  0  0  0  0  0
    5.3349   -6.9692   26.3181 Cl  0  0  0  0  0  0  0  0  0  0  0  0
    2.8002  -11.1850   16.4345 N   0  0  0  0  0  0  0  0  0  0  0  0
    1.1970   -7.4171   27.4982 C   0  0  0  0  0  0  0  0  0  0  0  0
    3.9902  -12.0995   14.2473 P   0  0  0  0  0  0  0  0  0  0  0  0
    0.8379   -5.3767   27.3149 Cl  0  0  0  0  0  0  0  0  0  0  0  0
    2.3968   -8.2101   26.2308 S   0  0  0  0  0  0  0  0  0  0  0  0
    2.3228   -9.6516   15.8787 Cl  0  0  0  0  0  0  0  0  0  0  0  0
    2.6998   -7.5541   27.5187 C   0  0  0  0  0  0  0  0  0  0  0  0
    3.1409  -12.2912   15.5183 He  0  0  0  0  0  0  0  0  0  0  0  0
    2.2143   -5.3820   26.0029 He  0  0  0  0  0  0  0  0  0  0  0  0
    7.2883   -8.9529   18.4617 He  0  0  0  0  0  0  0  0  0  0  0  0
    1.8358  -10.0386   16.6286 He  0  0  0  0  0  0  0  0  0  0  0  0
    2.8791   -9.4988   15.7455 He  0  0  0  0  0  0  0  0  0  0  0  0
    6.3289   -6.6990   17.9849 He  0  0  0  0  0  0  0  0  0  0  0  0
    6.2051   -9.0265   18.8415 He  0  0  0  0  0  0  0  0  0  0  0  0
    0.8424   -5.5023   26.5377 He  0  0  0  0  0  0  0  0  0  0  0  0
    2.3109   -4.9259   27.1445 He  0  0  0  0  0  0  0  0  0  0  0  0
    6.8811  -12.3154   15.1946 He  0  0  0  0  0  0  0  0  0  0  0  0
    3.1151   -2.9444   25.4453 He  0  0  0  0  0  0  0  0  0  0  0  0
    5.7695  -10.3507   17.8141 He  0  0  0  0  0  0  0  0  0  0  0  0
  1  3  4  0
  1  6  3  0
  1  7  2  0
  1  9  2  0
  1 10  1  0
  1 12  2  0
  1 15  2  0
  1 16  2  0
  2  5  3  0
  2  9  1  0
  2 13  3  0
  2 14  4  0
  2 15  1  0
  3  4  4  0
  3  7  1  0
  3  8  2  0
  3 10  4  0
  3 11  4  0
  3 13  1  0
  4  9  1  0
  5  6  1  0
  5  7  1  0
  5  8  1  0
  5 13  3  0
  5 16  4  0
  6  7  1  0
  6  9  1  0
  6 11  3  0
  6 13  1  0
  6 15  4  0
  7 10  4  0
  7 13  3  0
  8  9  4  0
  8 11  1  0
  9 11  2  0
  9 12  4  0
  9 14  2  0
 11 16  2  0
 13 16  2  0
 14 15  2  0
 15 16  2  0
M  END
$$$$

 Created by Python create_sdf_string function

 28 13  0  0  0  0  0  0  0  0999 V2000
    3.6767  -12.1051   15.4145 C   0  0  0  0  0  0  0  0  0  0  0  0
    2.7559   -5.1293   26.9812 C   0  0  0  0  0  0  0  0  0  0  0  0
    5.9374   -9.7793   17.0346 C   0  0  0  0  0  0  0  0  0  0  0  0
    5.7393   -7.4497   16.7678 C   0  0  0  0  0  0  0  0  0  0  0  0
    5.4924   -9.5199   17.0354 C   0  0  0  0  0  0  0  0  0  0  0  0
    1.1862   -3.2080   27.8287 C   0  0  0  0  0  0  0  0  0  0  0  0
    6.9092   -8.0592   18.0292 C   0  0  0  0  0  0  0  0  0  0  0  0
    1.9141  -10.0113   16.5600 C   0  0  0  0  0  0  0  0  0  0  0  0
    3.9384   -5.7817   26.9972 C   0  0  0  0  0  0  0  0  0  0  0  0
    3.0931   -9.9103   16.0492 C   0  0  0  0  0  0  0  0  0  0  0  0
    5.4240   -6.6086   27.1570 C   0  0  0  0  0  0  0  0  0  0  0  0
    6.6658   -7.3508   17.7806 C   0  0  0  0  0  0  0  0  0  0  0  0
    6.1810   -8.6989   18.3502 C   0  0  0  0  0  0  0  0  0  0  0  0
    0.6489   -5.5161   27.1371 C   0  0  0  0  0  0  0  0  0  0  0  0
    3.5402   -9.3512   16.6490 C   0  0  0  0  0  0  0  0  0  0  0  0
    2.1137   -4.9897   27.1367 C   0  0  0  0  0  0  0  0  0  0  0  0
    0.2623   -3.0965   27.3702 C   0  0  0  0  0  0  0  0  0  0  0  0
    5.8235  -11.6020   15.5460 C   0  0  0  0  0  0  0  0  0  0  0  0
    4.9981   -7.0964   26.7447 C   0  0  0  0  0  0  0  0  0  0  0  0
    2.4460   -3.2587   26.8976 C   0  0  0  0  0  0  0  0  0  0  0  0
    3.0260  -10.8783   16.3253 C   0  0  0  0  0  0  0  0  0  0  0  0
    1.3872   -6.9969   27.2938 C   0  0  0  0  0  0  0  0  0  0  0  0
    4.1288  -12.0341   15.0620 C   0  0  0  0  0  0  0  0  0  0  0  0
    5.3230  -10.1950   17.0706 C   0  0  0  0  0  0  0  0  0  0  0  0
    0.6360   -5.0793   27.3008 C   0  0  0  0  0  0  0  0  0  0  0  0
    3.1207   -7.8224   26.6843 C   0  0  0  0  0  0  0  0  0  0  0  0
    2.2360   -9.6728   16.2143 C   0  0  0  0  0  0  0  0  0  0  0  0
    2.9083   -7.2694   27.0384 C   0  0  0  0  0  0  0  0  0  0  0  0
  1 23  1  0
  2  9  4  0
  3  5  4  0
  4 12  4  0
  6 17  4  0
  7 12  4  0
  7 13  4  0
  8 27  4  0
 10 27  4  0
 11 19  1  0
 14 22  1  0
 14 25  4  0
 26 28  1  0
M  END
$$$$

 Created by Python create_sdf_string function

 28 53  0  0  0  0  0  0  0  0999 V2000
    2.2912  -13.0909   15.8631 F   0  0  0  0  0  0  0  0  0  0  0  0
    3.9181   -7.0766   15.6188 C   0  0  0  0  0  0  0  0  0  0  0  0
    5.9993   -9.3044   16.4296 Se  0  0  0  0  0  0  0  0  0  0  0  0
    2.2060   -2.8261   27.7689 Cl  0  0  0  0  0  0  0  0  0  0  0  0
    6.3970   -7.3538   18.0172 F   0  0  0  0  0  0  0  0  0  0  0  0
    2.7607   -5.6516   25.4064 P   0  0  0  0  0  0  0  0  0  0  0  0
    2.9824  -11.5779   16.1356 F   0  0  0  0  0  0  0  0  0  0  0  0
    4.7837   -6.2321   27.2660 Se  0  0  0  0  0  0  0  0  0  0  0  0
    7.0805   -9.0643   19.7660 Br  0  0  0  0  0  0  0  0  0  0  0  0
    1.6358   -1.8985   27.9340 P   0  0  0  0  0  0  0  0  0  0  0  0
    5.0057   -5.7603   27.3317 P   0  0  0  0  0  0  0  0  0  0  0  0
    2.9399   -3.6379   26.8258 C   0  0  0  0  0  0  0  0  0  0  0  0
    0.4516   -7.2972   26.9232 C   0  0  0  0  0  0  0  0  0  0  0  0
    4.7743  -11.0692   15.6212 C   0  0  0  0  0  0  0  0  0  0  0  0
    4.8543   -7.6316   16.4501 S   0  0  0  0  0  0  0  0  0  0  0  0
    0.3355   -5.6349   27.1326 C   0  0  0  0  0  0  0  0  0  0  0  0
    1.4148  -10.5269   16.4310 O   0  0  0  0  0  0  0  0  0  0  0  0
    3.3356   -7.4493   26.2324 O   0  0  0  0  0  0  0  0  0  0  0  0
    2.2615   -4.7940   29.2415 He  0  0  0  0  0  0  0  0  0  0  0  0
    5.9793   -9.3871   15.8485 He  0  0  0  0  0  0  0  0  0  0  0  0
    1.1411   -7.3071   16.0028 He  0  0  0  0  0  0  0  0  0  0  0  0
    6.9932   -7.5539   17.3509 He  0  0  0  0  0  0  0  0  0  0  0  0
    1.1329   -5.1907   26.3059 He  0  0  0  0  0  0  0  0  0  0  0  0
    3.9438   -9.4242   17.9548 He  0  0  0  0  0  0  0  0  0  0  0  0
    0.0550   -3.3628   27.5202 He  0  0  0  0  0  0  0  0  0  0  0  0
    5.7157  -10.7902   15.4216 He  0  0  0  0  0  0  0  0  0  0  0  0
    3.1196  -10.8422   15.7369 He  0  0  0  0  0  0  0  0  0  0  0  0
    2.5837   -8.5812   26.1773 He  0  0  0  0  0  0  0  0  0  0  0  0
  1  2  1  0
  1  8  1  0
  1 12  2  0
  1 14  1  0
  1 17  4  0
  1 18  4  0
  2  3  3  0
  2  4  4  0
  2  7  3  0
  2 10  2  0
  2 13  3  0
  3  5  2  0
  3  6  3  0
  3 10  4  0
  3 13  2  0
  3 15  1  0
  3 17  2  0
  4 11  2  0
  4 14  2  0
  4 16  2  0
  4 18  1  0
  5  6  2  0
  5  7  2  0
  5  8  3  0
  5 10  1  0
  5 12  1  0
  5 16  2  0
  6  8  4  0
  6  9  2  0
  6 12  3  0
  6 13  4  0
  6 15  3  0
  6 18  4  0
  7 11  2  0
  7 14  4  0
  7 17  2  0
  8 10  1  0
  8 18  3  0
  9 13  1  0
  9 15  3  0
  9 18  2  0
 10 11  1  0
 10 12  1  0
 11 14  2  0
 11 15  1  0
 11 16  1  0
 12 14  1  0
 12 18  3  0
 13 17  2  0
 14 15  3  0
 15 16  4  0
 15 17  3  0
 16 17  1  0
M  END
$$$$

 Created by Python create_sdf_string function

 28 11  0  0  0  0  0  0  0  0999 V2000
    2.8007  -12.2968   15.7240 C   0  0  0  0  0  0  0  0  0  0  0  0
    2.4706   -4.5895   28.0904 C   0  0  0  0  0  0  0  0  0  0  0  0
    5.6400   -9.5957   16.6297 C   0  0  0  0  0  0  0  0  0  0  0  0
    3.6745   -7.6929   16.2554 C   0  0  0  0  0  0  0  0  0  0  0  0
    5.6400   -8.9747   17.0054 C   0  0  0  0  0  0  0  0  0  0  0  0
    2.1815   -2.9573   27.6681 C   0  0  0  0  0  0  0  0  0  0  0  0
    6.4678   -7.6178   17.8018 C   0  0  0  0  0  0  0  0  0  0  0  0
    2.1252   -8.0780   16.1629 C   0  0  0  0  0  0  0  0  0  0  0  0
    2.7787   -6.0406   26.7911 C   0  0  0  0  0  0  0  0  0  0  0  0
    2.9619  -11.0343   16.1110 C   0  0  0  0  0  0  0  0  0  0  0  0
    4.3316   -6.1509   27.2114 C   0  0  0  0  0  0  0  0  0  0  0  0
    6.8513   -7.6642   17.6043 C   0  0  0  0  0  0  0  0  0  0  0  0
    6.2583   -8.2924   18.6633 C   0  0  0  0  0  0  0  0  0  0  0  0
    0.9898   -5.0298   27.0953 C   0  0  0  0  0  0  0  0  0  0  0  0
    3.9506   -9.3139   17.0978 C   0  0  0  0  0  0  0  0  0  0  0  0
    0.4562   -3.2978   27.3111 C   0  0  0  0  0  0  0  0  0  0  0  0
    1.5153   -2.5280   27.7277 C   0  0  0  0  0  0  0  0  0  0  0  0
    5.2880  -11.0156   16.0257 C   0  0  0  0  0  0  0  0  0  0  0  0
    4.5257   -5.6524   27.4430 C   0  0  0  0  0  0  0  0  0  0  0  0
    2.7776   -3.9320   27.2749 C   0  0  0  0  0  0  0  0  0  0  0  0
    3.0572  -10.7075   16.1285 C   0  0  0  0  0  0  0  0  0  0  0  0
    1.0965   -6.8024   26.9942 C   0  0  0  0  0  0  0  0  0  0  0  0
    4.4961  -11.3518   15.9147 C   0  0  0  0  0  0  0  0  0  0  0  0
    4.4504   -8.0442   16.7033 C   0  0  0  0  0  0  0  0  0  0  0  0
    0.6662   -5.6154   27.1335 C   0  0  0  0  0  0  0  0  0  0  0  0
    2.7787   -8.0562   26.5366 C   0  0  0  0  0  0  0  0  0  0  0  0
    1.6627  -10.1903   16.3988 O   0  0  0  0  0  0  0  0  0  0  0  0
    3.2429   -7.2999   26.5786 C   0  0  0  0  0  0  0  0  0  0  0  0
  3  5  4  0
  3 18  4  0
  4 24  1  0
  7 12  4  0
 10 21  4  0
 11 19  1  0
 14 25  1  0
 16 17  1  0
 18 23  4  0
 22 25  4  0
 26 28  1  0
M  END
$$$$

 Created by Python create_sdf_string function

 28 59  0  0  0  0  0  0  0  0999 V2000
    4.0493  -11.3509   15.7869 P   0  0  0  0  0  0  0  0  0  0  0  0
    2.3031   -4.6104   27.8302 C   0  0  0  0  0  0  0  0  0  0  0  0
    4.7415   -8.3580   16.5808 P   0  0  0  0  0  0  0  0  0  0  0  0
    1.5865   -3.7248   28.9827 C   0  0  0  0  0  0  0  0  0  0  0  0
    7.5134   -6.5918   17.4243 N   0  0  0  0  0  0  0  0  0  0  0  0
    2.9403   -8.2318   15.6364 C   0  0  0  0  0  0  0  0  0  0  0  0
    3.3945   -7.2629   27.2327 O   0  0  0  0  0  0  0  0  0  0  0  0
    3.7981   -9.6921   15.1193 N   0  0  0  0  0  0  0  0  0  0  0  0
    5.1832   -6.1583   26.3189 C   0  0  0  0  0  0  0  0  0  0  0  0
    8.7591   -6.2475   17.4453 C   0  0  0  0  0  0  0  0  0  0  0  0
    6.4628   -9.2578   17.7709 S   0  0  0  0  0  0  0  0  0  0  0  0
    0.7164   -5.1769   25.4459 C   0  0  0  0  0  0  0  0  0  0  0  0
    5.1858   -5.3553   26.6425 O   0  0  0  0  0  0  0  0  0  0  0  0
    2.4193   -3.6524   27.1335 O   0  0  0  0  0  0  0  0  0  0  0  0
    3.2059  -10.0881   16.3049 C   0  0  0  0  0  0  0  0  0  0  0  0
    4.1518  -11.3216   15.7920 C   0  0  0  0  0  0  0  0  0  0  0  0
    1.1661   -9.7405   14.9499 C   0  0  0  0  0  0  0  0  0  0  0  0
    6.1659  -10.0638   16.1388 He  0  0  0  0  0  0  0  0  0  0  0  0
    3.5518   -9.0480   16.1111 He  0  0  0  0  0  0  0  0  0  0  0  0
    4.1135   -8.0279   18.5483 He  0  0  0  0  0  0  0  0  0  0  0  0
    0.7085   -2.2725   29.1293 He  0  0  0  0  0  0  0  0  0  0  0  0
    0.9466   -1.8727   26.3741 He  0  0  0  0  0  0  0  0  0  0  0  0
    4.8321  -11.4333   16.5473 He  0  0  0  0  0  0  0  0  0  0  0  0
    0.4680   -7.8883   26.7620 He  0  0  0  0  0  0  0  0  0  0  0  0
    4.0467   -8.5675   17.3279 He  0  0  0  0  0  0  0  0  0  0  0  0
   -0.3779   -4.7361   27.4166 He  0  0  0  0  0  0  0  0  0  0  0  0
    3.3577   -8.5137   26.8872 He  0  0  0  0  0  0  0  0  0  0  0  0
    2.6541   -7.4677   26.3654 He  0  0  0  0  0  0  0  0  0  0  0  0
  1  2  2  0
  1  3  3  0
  1  4  1  0
  1  8  1  0
  1 10  2  0
  1 11  3  0
  1 12  4  0
  1 14  3  0
  1 16  4  0
  2  3  1  0
  2  7  3  0
  2  8  3  0
  2 12  3  0
  2 13  4  0
  2 17  3  0
  3  4  1  0
  3  5  4  0
  3  9  3  0
  3 13  1  0
  3 14  2  0
  4  9  3  0
  4 10  1  0
  4 15  3  0
  4 16  3  0
  5  6  4  0
  5  7  4  0
  5  9  3  0
  5 13  3  0
  5 14  1  0
  5 15  4  0
  6  8  1  0
  6 10  2  0
  6 11  3  0
  6 12  4  0
  6 14  4  0
  7  8  4  0
  7 10  4  0
  7 15  2  0
  7 17  1  0
  8 10  4  0
  8 11  4  0
  8 14  2  0
  8 15  3  0
  8 16  2  0
  9 11  4  0
  9 12  2  0
  9 13  4  0
  9 16  1  0
  9 17  1  0
 10 12  4  0
 10 15  2  0
 11 15  2  0
 12 15  1  0
 12 16  2  0
 13 14  2  0
 13 16  3  0
 14 17  4  0
 15 16  4  0
 16 17  3  0
M  END
$$$$

 Created by Python create_sdf_string function

 28 11  0  0  0  0  0  0  0  0999 V2000
    3.8923  -11.5635   15.7584 C   0  0  0  0  0  0  0  0  0  0  0  0
    2.5646   -4.7724   27.3929 C   0  0  0  0  0  0  0  0  0  0  0  0
    5.9882   -9.7317   16.9776 C   0  0  0  0  0  0  0  0  0  0  0  0
    2.9732   -9.0477   16.0771 C   0  0  0  0  0  0  0  0  0  0  0  0
    5.4982   -7.8421   16.9256 C   0  0  0  0  0  0  0  0  0  0  0  0
    1.5490   -3.6110   28.3347 C   0  0  0  0  0  0  0  0  0  0  0  0
    7.2134   -7.1302   17.4957 C   0  0  0  0  0  0  0  0  0  0  0  0
    2.7516   -8.3586   15.8801 C   0  0  0  0  0  0  0  0  0  0  0  0
    3.1451   -7.2442   26.9324 C   0  0  0  0  0  0  0  0  0  0  0  0
    3.3739   -9.8117   15.5859 C   0  0  0  0  0  0  0  0  0  0  0  0
    4.5239   -6.1396   26.9331 C   0  0  0  0  0  0  0  0  0  0  0  0
    7.8014   -7.0882   17.6319 C   0  0  0  0  0  0  0  0  0  0  0  0
    6.7231   -8.4275   17.7955 C   0  0  0  0  0  0  0  0  0  0  0  0
    0.8676   -5.3946   26.8298 C   0  0  0  0  0  0  0  0  0  0  0  0
    5.3628   -8.4031   17.5838 C   0  0  0  0  0  0  0  0  0  0  0  0
    0.9600   -2.7246   28.2596 C   0  0  0  0  0  0  0  0  0  0  0  0
    0.6531   -2.5732   27.0810 C   0  0  0  0  0  0  0  0  0  0  0  0
    5.0252  -11.3949   16.3560 C   0  0  0  0  0  0  0  0  0  0  0  0
    4.6021   -5.5469   27.2141 O   0  0  0  0  0  0  0  0  0  0  0  0
    2.5929   -3.9547   27.3488 C   0  0  0  0  0  0  0  0  0  0  0  0
    3.1196   -9.9343   16.1660 C   0  0  0  0  0  0  0  0  0  0  0  0
    1.0429   -7.0408   26.9693 C   0  0  0  0  0  0  0  0  0  0  0  0
    4.0908  -11.4630   15.9228 C   0  0  0  0  0  0  0  0  0  0  0  0
    4.6633   -8.5459   16.8873 C   0  0  0  0  0  0  0  0  0  0  0  0
    0.2642   -4.5031   27.1025 C   0  0  0  0  0  0  0  0  0  0  0  0
    3.1258   -7.7992   26.7907 C   0  0  0  0  0  0  0  0  0  0  0  0
    1.6487   -9.7998   15.0987 C   0  0  0  0  0  0  0  0  0  0  0  0
    2.6932   -6.9027   26.7208 C   0  0  0  0  0  0  0  0  0  0  0  0
  1 23  4  0
  2 20  1  0
  3 13  4  0
  6 16  1  0
  7 12  4  0
  9 26  1  0
  9 28  1  0
 11 19  1  0
 14 25  1  0
 16 17  1  0
 18 23  4  0
M  END
$$$$

 Created by Python create_sdf_string function

 28 84  0  0  0  0  0  0  0  0999 V2000
    3.6975  -13.2441   17.3009 C   0  0  0  0  0  0  0  0  0  0  0  0
    5.0280   -9.0062   17.8301 O   0  0  0  0  0  0  0  0  0  0  0  0
    5.4949   -7.4835   17.1035 F   0  0  0  0  0  0  0  0  0  0  0  0
    3.3845  -10.3060   14.0231 C   0  0  0  0  0  0  0  0  0  0  0  0
    5.1101   -5.5525   27.3596 P   0  0  0  0  0  0  0  0  0  0  0  0
    6.5550   -6.2377   17.5872 P   0  0  0  0  0  0  0  0  0  0  0  0
    6.6202   -7.4812   18.7539 C   0  0  0  0  0  0  0  0  0  0  0  0
    1.3885   -4.1927   26.2824 Br  0  0  0  0  0  0  0  0  0  0  0  0
    5.5694   -8.1954   18.6855 O   0  0  0  0  0  0  0  0  0  0  0  0
    1.5152   -2.5406   29.2373 S   0  0  0  0  0  0  0  0  0  0  0  0
    0.6270   -3.2450   26.5142 Br  0  0  0  0  0  0  0  0  0  0  0  0
    5.4327   -9.7353   15.5109 P   0  0  0  0  0  0  0  0  0  0  0  0
    5.0825   -5.0830   27.1009 F   0  0  0  0  0  0  0  0  0  0  0  0
    3.0949   -3.2169   26.5242 O   0  0  0  0  0  0  0  0  0  0  0  0
    2.6209  -10.2132   16.4082 C   0  0  0  0  0  0  0  0  0  0  0  0
   -0.0375   -6.1028   26.1840 Cl  0  0  0  0  0  0  0  0  0  0  0  0
    3.5807  -12.0882   14.5995 N   0  0  0  0  0  0  0  0  0  0  0  0
    0.0310   -5.2695   26.5800 O   0  0  0  0  0  0  0  0  0  0  0  0
    3.3446   -7.6402   27.6196 C   0  0  0  0  0  0  0  0  0  0  0  0
    1.7040  -10.0539   14.0746 O   0  0  0  0  0  0  0  0  0  0  0  0
    2.3948   -6.3506   26.6035 C   0  0  0  0  0  0  0  0  0  0  0  0
    1.7026   -5.7196   25.6882 He  0  0  0  0  0  0  0  0  0  0  0  0
    3.3023   -8.8315   14.2058 He  0  0  0  0  0  0  0  0  0  0  0  0
    1.8491   -4.1447   26.8935 He  0  0  0  0  0  0  0  0  0  0  0  0
    8.0612   -6.2681   17.6120 He  0  0  0  0  0  0  0  0  0  0  0  0
    4.4700   -7.7641   16.6761 He  0  0  0  0  0  0  0  0  0  0  0  0
    2.9603   -6.1036   26.3937 He  0  0  0  0  0  0  0  0  0  0  0  0
    3.6696   -7.4868   19.4736 He  0  0  0  0  0  0  0  0  0  0  0  0
  1  3  3  0
  1  6  4  0
  1 10  3  0
  1 14  3  0
  1 17  4  0
  1 21  1  0
  2  4  4  0
  2  6  2  0
  2 10  3  0
  2 13  4  0
  2 17  3  0
  2 19  1  0
  2 21  2  0
  3  9  4  0
  3 10  4  0
  3 11  4  0
  3 13  2  0
  3 14  3  0
  3 15  1  0
  3 17  2  0
  3 19  3  0
  3 20  2  0
  3 21  1  0
  4  6  2  0
  4  8  2  0
  4  9  2  0
  4 10  3  0
  4 11  4  0
  4 12  2  0
  4 17  4  0
  4 18  3  0
  4 19  1  0
  4 21  2  0
  5  9  4  0
  5 10  2  0
  5 14  1  0
  5 15  2  0
  6 13  2  0
  6 14  4  0
  6 15  3  0
  6 16  4  0
  6 17  1  0
  7  9  4  0
  7 15  3  0
  7 16  2  0
  7 17  1  0
  8 13  3  0
  8 18  1  0
  8 20  4  0
  8 21  1  0
  9 10  1  0
  9 11  1  0
  9 14  4  0
  9 16  3  0
  9 20  1  0
 10 11  4  0
 10 12  3  0
 10 14  4  0
 10 16  1  0
 10 19  2  0
 11 13  4  0
 11 18  4  0
 11 19  2  0
 11 20  2  0
 12 14  1  0
 12 19  2  0
 12 20  2  0
 13 16  4  0
 13 19  2  0
 14 16  1  0
 14 17  3  0
 14 20  4  0
 14 21  2  0
 15 16  4  0
 15 20  1  0
 16 17  3  0
 16 18  4  0
 16 19  2  0
 16 20  4  0
 17 18  3  0
 17 20  2  0
 18 19  3  0
 18 20  1  0
 19 20  1  0
M  END
$$$$

 Created by Python create_sdf_string function

 28 13  0  0  0  0  0  0  0  0999 V2000
    3.6260  -12.0243   16.6517 C   0  0  0  0  0  0  0  0  0  0  0  0
    1.6643   -5.9985   26.7191 C   0  0  0  0  0  0  0  0  0  0  0  0
    4.6740   -9.6705   17.6572 C   0  0  0  0  0  0  0  0  0  0  0  0
    3.4012   -9.3608   14.7278 C   0  0  0  0  0  0  0  0  0  0  0  0
    5.8422   -7.5675   16.8778 C   0  0  0  0  0  0  0  0  0  0  0  0
    2.3292   -4.2452   27.2755 C   0  0  0  0  0  0  0  0  0  0  0  0
    7.8306   -6.5327   17.6285 C   0  0  0  0  0  0  0  0  0  0  0  0
    4.5296   -8.1965   16.5018 C   0  0  0  0  0  0  0  0  0  0  0  0
    3.1358   -6.4903   26.8127 C   0  0  0  0  0  0  0  0  0  0  0  0
    3.3936  -10.6128   14.5533 C   0  0  0  0  0  0  0  0  0  0  0  0
    4.8297   -5.6063   27.4997 C   0  0  0  0  0  0  0  0  0  0  0  0
    7.2225   -6.7114   17.3170 C   0  0  0  0  0  0  0  0  0  0  0  0
    6.8759   -7.5435   18.1575 C   0  0  0  0  0  0  0  0  0  0  0  0
    0.9433   -4.2072   27.0311 C   0  0  0  0  0  0  0  0  0  0  0  0
    6.0263   -8.2554   18.2576 C   0  0  0  0  0  0  0  0  0  0  0  0
    1.6363   -2.5370   27.9232 C   0  0  0  0  0  0  0  0  0  0  0  0
    0.5772   -3.1385   27.1541 C   0  0  0  0  0  0  0  0  0  0  0  0
    4.4140   -9.9719   15.9200 C   0  0  0  0  0  0  0  0  0  0  0  0
    4.7481   -5.2563   27.4647 C   0  0  0  0  0  0  0  0  0  0  0  0
    3.1829   -3.4108   27.4457 C   0  0  0  0  0  0  0  0  0  0  0  0
    3.0986  -10.3533   16.3950 C   0  0  0  0  0  0  0  0  0  0  0  0
    0.1209   -5.8784   26.7258 C   0  0  0  0  0  0  0  0  0  0  0  0
    3.4538  -11.8058   15.1799 C   0  0  0  0  0  0  0  0  0  0  0  0
    4.9720   -8.3574   17.5988 C   0  0  0  0  0  0  0  0  0  0  0  0
   -0.2113   -4.8901   26.8773 C   0  0  0  0  0  0  0  0  0  0  0  0
    3.6814   -7.3072   27.0830 C   0  0  0  0  0  0  0  0  0  0  0  0
    2.2092  -10.1988   14.4565 C   0  0  0  0  0  0  0  0  0  0  0  0
    2.7569   -6.2235   26.8709 C   0  0  0  0  0  0  0  0  0  0  0  0
  1 23  4  0
  3 24  1  0
  5 12  4  0
  6 20  4  0
  7 12  4  0
  9 26  1  0
  9 28  4  0
 10 23  4  0
 11 19  1  0
 13 15  4  0
 14 17  4  0
 16 17  4  0
 22 25  4  0
M  END
$$$$

 Created by Python create_sdf_string function

 28 53  0  0  0  0  0  0  0  0999 V2000
    3.7744  -12.1611   17.4858 C   0  0  0  0  0  0  0  0  0  0  0  0
    2.0836   -4.9278   26.2902 B   0  0  0  0  0  0  0  0  0  0  0  0
    4.2466   -9.6609   18.0277 I   0  0  0  0  0  0  0  0  0  0  0  0
    3.5730   -8.5736   14.2717 C   0  0  0  0  0  0  0  0  0  0  0  0
    6.5439   -8.7994   15.7000 N   0  0  0  0  0  0  0  0  0  0  0  0
    8.4920   -7.0225   18.0010 O   0  0  0  0  0  0  0  0  0  0  0  0
    3.7098   -5.6314   26.1818 C   0  0  0  0  0  0  0  0  0  0  0  0
    3.0669  -11.1137   14.0556 F   0  0  0  0  0  0  0  0  0  0  0  0
    6.2581   -6.5067   18.4108 C   0  0  0  0  0  0  0  0  0  0  0  0
    1.2236   -4.3946   26.9646 N   0  0  0  0  0  0  0  0  0  0  0  0
    1.3337   -1.7131   28.5183 N   0  0  0  0  0  0  0  0  0  0  0  0
    4.0092   -5.5301   28.3983 O   0  0  0  0  0  0  0  0  0  0  0  0
    3.6376  -10.5791   17.8486 N   0  0  0  0  0  0  0  0  0  0  0  0
    4.5795   -6.9167   17.5925 F   0  0  0  0  0  0  0  0  0  0  0  0
   -0.0351   -4.3381   26.7321 B   0  0  0  0  0  0  0  0  0  0  0  0
    3.4375   -7.8666   27.6506 O   0  0  0  0  0  0  0  0  0  0  0  0
    2.5190   -6.0701   26.9472 C   0  0  0  0  0  0  0  0  0  0  0  0
    1.7650   -4.5754   28.2411 He  0  0  0  0  0  0  0  0  0  0  0  0
    4.4345   -6.8616   16.7007 He  0  0  0  0  0  0  0  0  0  0  0  0
    3.9956   -6.4388   27.0610 He  0  0  0  0  0  0  0  0  0  0  0  0
    7.5013   -7.4997   16.5753 He  0  0  0  0  0  0  0  0  0  0  0  0
    6.0772   -8.8284   16.5895 He  0  0  0  0  0  0  0  0  0  0  0  0
   -0.2644   -3.0925   26.9035 He  0  0  0  0  0  0  0  0  0  0  0  0
    4.8981   -9.8643   17.0335 He  0  0  0  0  0  0  0  0  0  0  0  0
    4.3303   -2.8733   27.4910 He  0  0  0  0  0  0  0  0  0  0  0  0
    0.6020   -5.9158   27.3972 He  0  0  0  0  0  0  0  0  0  0  0  0
    3.0360  -13.0876   13.8904 He  0  0  0  0  0  0  0  0  0  0  0  0
    2.3490  -10.1578   14.1413 He  0  0  0  0  0  0  0  0  0  0  0  0
  1  4  4  0
  1  6  3  0
  1  7  3  0
  1  9  1  0
  1 11  2  0
  1 13  4  0
  1 14  2  0
  2 12  1  0
  2 13  3  0
  2 14  4  0
  2 17  2  0
  3  8  4  0
  3  9  4  0
  3 12  2  0
  3 13  4  0
  3 16  1  0
  3 17  4  0
  4  5  3  0
  4  9  4  0
  4 10  3  0
  4 11  4  0
  4 12  1  0
  4 15  4  0
  5  8  3  0
  5 10  2  0
  5 11  3  0
  6 14  4  0
  6 15  4  0
  7  8  2  0
  7  9  4  0
  7 13  4  0
  7 15  2  0
  7 16  1  0
  8  9  1  0
  8 12  3  0
  8 13  1  0
  8 14  4  0
  8 16  2  0
  9 11  1  0
  9 13  4  0
  9 14  2  0
  9 15  1  0
 10 11  4  0
 10 13  1  0
 10 14  4  0
 11 12  3  0
 11 13  2  0
 11 14  1  0
 11 16  3  0
 12 14  1  0
 13 15  3  0
 13 16  2  0
 14 16  1  0
M  END
$$$$

 Created by Python create_sdf_string function

 28 16  0  0  0  0  0  0  0  0999 V2000
    3.3082  -11.4947   16.6503 C   0  0  0  0  0  0  0  0  0  0  0  0
    2.2903   -5.2184   27.0653 C   0  0  0  0  0  0  0  0  0  0  0  0
    4.4970   -9.8311   17.5723 C   0  0  0  0  0  0  0  0  0  0  0  0
    4.0039   -9.5631   14.9125 C   0  0  0  0  0  0  0  0  0  0  0  0
    6.4403   -8.7348   16.2223 C   0  0  0  0  0  0  0  0  0  0  0  0
    2.0937   -4.2910   27.5346 C   0  0  0  0  0  0  0  0  0  0  0  0
    8.1008   -7.2298   17.5948 O   0  0  0  0  0  0  0  0  0  0  0  0
    4.9957   -7.5959   16.7573 C   0  0  0  0  0  0  0  0  0  0  0  0
    3.7685   -6.6152   26.6515 C   0  0  0  0  0  0  0  0  0  0  0  0
    3.1181  -11.1187   14.3743 C   0  0  0  0  0  0  0  0  0  0  0  0
    3.8781   -6.3771   27.1752 C   0  0  0  0  0  0  0  0  0  0  0  0
    7.4799   -7.4060   17.0824 C   0  0  0  0  0  0  0  0  0  0  0  0
    6.5543   -7.1063   18.1168 C   0  0  0  0  0  0  0  0  0  0  0  0
    1.3621   -3.4733   27.4056 C   0  0  0  0  0  0  0  0  0  0  0  0
    5.6110   -8.7250   16.9388 C   0  0  0  0  0  0  0  0  0  0  0  0
    1.5213   -2.2042   27.6146 C   0  0  0  0  0  0  0  0  0  0  0  0
   -0.1078   -3.1847   27.0915 C   0  0  0  0  0  0  0  0  0  0  0  0
    4.6511   -9.7335   16.1430 C   0  0  0  0  0  0  0  0  0  0  0  0
    4.0764   -5.4957   28.1550 O   0  0  0  0  0  0  0  0  0  0  0  0
    3.6021   -3.2688   27.7470 C   0  0  0  0  0  0  0  0  0  0  0  0
    3.7042  -10.8999   17.5269 C   0  0  0  0  0  0  0  0  0  0  0  0
    0.3769   -5.7578   26.9811 C   0  0  0  0  0  0  0  0  0  0  0  0
    2.8529  -12.5071   14.3360 C   0  0  0  0  0  0  0  0  0  0  0  0
    5.4680   -7.3062   17.4917 C   0  0  0  0  0  0  0  0  0  0  0  0
   -0.3340   -4.4289   26.9541 C   0  0  0  0  0  0  0  0  0  0  0  0
    3.1763   -7.7523   27.1540 O   0  0  0  0  0  0  0  0  0  0  0  0
    2.9638  -11.1499   14.5217 C   0  0  0  0  0  0  0  0  0  0  0  0
    1.9657   -5.8398   27.1281 C   0  0  0  0  0  0  0  0  0  0  0  0
  1 21  4  0
  3 15  4  0
  3 21  4  0
  4 18  4  0
  6 14  4  0
  7 12  4  0
  8 24  4  0
  9 11  1  0
  9 26  1  0
 10 27  1  0
 11 19  1  0
 13 24  4  0
 14 16  4  0
 17 25  4  0
 22 25  4  0
 23 27  1  0
M  END
$$$$

 Created by Python create_sdf_string function

 28 46  0  0  0  0  0  0  0  0999 V2000
    2.7915  -10.1227   15.9476 Cl  0  0  0  0  0  0  0  0  0  0  0  0
    4.2190   -9.3108   18.3697 C   0  0  0  0  0  0  0  0  0  0  0  0
    3.6111   -6.2954   27.1952 S   0  0  0  0  0  0  0  0  0  0  0  0
    8.7398   -7.6158   18.3093 S   0  0  0  0  0  0  0  0  0  0  0  0
    6.8592   -8.1787   17.5853 Cl  0  0  0  0  0  0  0  0  0  0  0  0
    1.5389   -3.5076   28.5158 C   0  0  0  0  0  0  0  0  0  0  0  0
    0.6901   -1.2495   27.6351 C   0  0  0  0  0  0  0  0  0  0  0  0
    2.7624   -4.8941   28.1713 O   0  0  0  0  0  0  0  0  0  0  0  0
    3.2609   -3.9543   27.9210 O   0  0  0  0  0  0  0  0  0  0  0  0
    3.9817  -11.5254   17.1597 C   0  0  0  0  0  0  0  0  0  0  0  0
    1.2962   -6.4378   27.4094 S   0  0  0  0  0  0  0  0  0  0  0  0
    2.8028  -11.2726   13.6110 O   0  0  0  0  0  0  0  0  0  0  0  0
    4.4262   -5.8862   16.2486 C   0  0  0  0  0  0  0  0  0  0  0  0
    0.7255   -4.2635   27.4100 N   0  0  0  0  0  0  0  0  0  0  0  0
    2.7087   -7.8807   27.2416 F   0  0  0  0  0  0  0  0  0  0  0  0
    3.1300  -11.7759   13.0572 C   0  0  0  0  0  0  0  0  0  0  0  0
    0.8223   -8.4680   26.3018 Cl  0  0  0  0  0  0  0  0  0  0  0  0
    2.6966   -5.8173   28.1829 He  0  0  0  0  0  0  0  0  0  0  0  0
    3.0405  -10.3663   14.7258 He  0  0  0  0  0  0  0  0  0  0  0  0
    8.9441   -9.8907   16.1666 He  0  0  0  0  0  0  0  0  0  0  0  0
    2.3001   -3.5455   28.6645 He  0  0  0  0  0  0  0  0  0  0  0  0
    7.9608   -6.3840   17.0221 He  0  0  0  0  0  0  0  0  0  0  0  0
    3.2426   -8.1363   16.1852 He  0  0  0  0  0  0  0  0  0  0  0  0
    2.4585   -6.4003   26.2329 He  0  0  0  0  0  0  0  0  0  0  0  0
    2.8726  -11.3444   13.9359 He  0  0  0  0  0  0  0  0  0  0  0  0
    5.0202   -9.8982   17.2241 He  0  0  0  0  0  0  0  0  0  0  0  0
   -0.5642   -2.0406   28.3401 He  0  0  0  0  0  0  0  0  0  0  0  0
    4.4240   -9.7371   15.9305 He  0  0  0  0  0  0  0  0  0  0  0  0
  1  4  1  0
  1  8  3  0
  1 12  2  0
  1 14  1  0
  1 15  2  0
  1 16  3  0
  1 17  2  0
  2  3  4  0
  2  9  3  0
  2 11  1  0
  2 13  3  0
  2 14  3  0
  3  5  2  0
  3 11  4  0
  3 14  2  0
  4  5  4  0
  4  9  3  0
  4 12  2  0
  4 14  2  0
  4 15  1  0
  5 13  3  0
  5 14  4  0
  6  9  4  0
  6 11  1  0
  6 17  4  0
  7  8  1  0
  7 14  2  0
  7 15  4  0
  7 16  1  0
  8 12  4  0
  8 14  4  0
  9 13  4  0
  9 14  1  0
  9 16  2  0
 10 12  1  0
 10 13  4  0
 10 14  2  0
 10 17  3  0
 11 13  3  0
 11 17  3  0
 12 15  4  0
 12 16  1  0
 12 17  1  0
 13 17  3  0
 15 16  3  0
 16 17  4  0
M  END
$$$$

 Created by Python create_sdf_string function

 28 11  0  0  0  0  0  0  0  0999 V2000
    2.7388  -10.4410   15.7255 C   0  0  0  0  0  0  0  0  0  0  0  0
    2.6060   -5.5529   27.6111 C   0  0  0  0  0  0  0  0  0  0  0  0
    5.1280   -9.4571   17.5051 C   0  0  0  0  0  0  0  0  0  0  0  0
    3.2484  -10.1545   14.9926 C   0  0  0  0  0  0  0  0  0  0  0  0
    8.1070   -8.5564   17.1403 C   0  0  0  0  0  0  0  0  0  0  0  0
    2.1239   -3.2551   28.4262 C   0  0  0  0  0  0  0  0  0  0  0  0
    7.7446   -6.9663   17.4009 C   0  0  0  0  0  0  0  0  0  0  0  0
    3.8848   -8.3476   16.1922 C   0  0  0  0  0  0  0  0  0  0  0  0
    2.5918   -6.8663   26.6254 C   0  0  0  0  0  0  0  0  0  0  0  0
    2.8628  -11.6425   14.2438 C   0  0  0  0  0  0  0  0  0  0  0  0
    3.4161   -6.3815   27.1649 C   0  0  0  0  0  0  0  0  0  0  0  0
    7.8363   -7.5666   17.6452 C   0  0  0  0  0  0  0  0  0  0  0  0
    6.6895   -8.1081   17.5575 C   0  0  0  0  0  0  0  0  0  0  0  0
    1.6861   -3.0059   28.3631 C   0  0  0  0  0  0  0  0  0  0  0  0
    5.5858   -9.4488   17.3338 C   0  0  0  0  0  0  0  0  0  0  0  0
    0.6635   -1.9095   27.8941 C   0  0  0  0  0  0  0  0  0  0  0  0
    0.1177   -2.4163   27.9446 C   0  0  0  0  0  0  0  0  0  0  0  0
    4.2060   -9.5150   16.2229 C   0  0  0  0  0  0  0  0  0  0  0  0
    2.2782   -4.7550   27.8037 C   0  0  0  0  0  0  0  0  0  0  0  0
    3.0589   -3.5754   28.1415 C   0  0  0  0  0  0  0  0  0  0  0  0
    3.7380  -11.2298   16.3959 C   0  0  0  0  0  0  0  0  0  0  0  0
    1.2223   -6.2558   27.0125 C   0  0  0  0  0  0  0  0  0  0  0  0
    2.8809  -11.2741   13.9095 C   0  0  0  0  0  0  0  0  0  0  0  0
    5.2240   -7.4861   16.5129 C   0  0  0  0  0  0  0  0  0  0  0  0
    0.6096   -4.1187   27.4199 C   0  0  0  0  0  0  0  0  0  0  0  0
    2.5942   -7.8211   26.8590 C   0  0  0  0  0  0  0  0  0  0  0  0
    3.1054  -11.4922   13.7223 C   0  0  0  0  0  0  0  0  0  0  0  0
    1.5350   -8.0589   26.7702 C   0  0  0  0  0  0  0  0  0  0  0  0
  2 11  4  0
  3 15  4  0
  7 12  4  0
  8 24  4  0
  9 11  4  0
  9 26  4  0
 10 27  1  0
 12 13  4  0
 16 17  4  0
 23 27  1  0
 26 28  4  0
M  END
$$$$

 Created by Python create_sdf_string function

 28 79  0  0  0  0  0  0  0  0999 V2000
    2.0373   -5.2674   27.8113 I   0  0  0  0  0  0  0  0  0  0  0  0
    5.5797  -10.1814   17.6221 C   0  0  0  0  0  0  0  0  0  0  0  0
    6.8284   -8.8448   17.0832 C   0  0  0  0  0  0  0  0  0  0  0  0
    3.6439   -2.1287   29.6304 C   0  0  0  0  0  0  0  0  0  0  0  0
    3.8680   -7.3987   14.7842 C   0  0  0  0  0  0  0  0  0  0  0  0
    2.4904   -6.1371   27.3382 F   0  0  0  0  0  0  0  0  0  0  0  0
    4.1188  -12.0018   12.9824 Cl  0  0  0  0  0  0  0  0  0  0  0  0
    3.4375   -6.3571   26.7034 C   0  0  0  0  0  0  0  0  0  0  0  0
    6.6216   -6.5338   17.0785 C   0  0  0  0  0  0  0  0  0  0  0  0
    2.0219   -3.8895   28.4536 C   0  0  0  0  0  0  0  0  0  0  0  0
    3.9559  -10.2461   15.7615 C   0  0  0  0  0  0  0  0  0  0  0  0
    0.3166   -1.4536   24.8363 F   0  0  0  0  0  0  0  0  0  0  0  0
    3.5307   -9.6157   16.7071 I   0  0  0  0  0  0  0  0  0  0  0  0
    4.1470   -3.8751   26.5509 C   0  0  0  0  0  0  0  0  0  0  0  0
    3.7986  -10.5256   17.6197 C   0  0  0  0  0  0  0  0  0  0  0  0
    2.2511   -6.6935   27.4187 N   0  0  0  0  0  0  0  0  0  0  0  0
    1.5628  -12.4087   12.9518 I   0  0  0  0  0  0  0  0  0  0  0  0
    6.5149   -7.9054   17.8966 Se  0  0  0  0  0  0  0  0  0  0  0  0
    1.9947   -7.8356   26.8323 C   0  0  0  0  0  0  0  0  0  0  0  0
    2.9338  -11.6485   12.0415 C   0  0  0  0  0  0  0  0  0  0  0  0
    3.0261   -8.2594   26.7519 C   0  0  0  0  0  0  0  0  0  0  0  0
    1.9208   -9.6734   15.7491 He  0  0  0  0  0  0  0  0  0  0  0  0
    1.7495  -11.1496   16.1828 He  0  0  0  0  0  0  0  0  0  0  0  0
    7.4472   -6.7318   16.0475 He  0  0  0  0  0  0  0  0  0  0  0  0
    6.4954   -8.3826   18.8202 He  0  0  0  0  0  0  0  0  0  0  0  0
    0.3398   -1.9242   28.2063 He  0  0  0  0  0  0  0  0  0  0  0  0
    2.6506   -5.4050   29.2963 He  0  0  0  0  0  0  0  0  0  0  0  0
    1.1845   -3.3395   27.6032 He  0  0  0  0  0  0  0  0  0  0  0  0
  1  7  1  0
  1  8  4  0
  1 10  1  0
  1 12  2  0
  1 13  2  0
  1 16  4  0
  1 18  4  0
  1 20  1  0
  2  3  1  0
  2  6  3  0
  2  7  2  0
  2  8  4  0
  2 12  4  0
  2 13  1  0
  2 14  1  0
  2 17  2  0
  3  6  2  0
  3 12  1  0
  3 20  1  0
  3 21  2  0
  4  5  3  0
  4  6  2  0
  4  9  1  0
  4 14  4  0
  4 15  4  0
  4 18  4  0
  4 19  2  0
  5  7  1  0
  5  9  1  0
  5 11  2  0
  5 13  4  0
  5 14  3  0
  5 15  3  0
  5 18  4  0
  5 20  2  0
  6  8  4  0
  7  9  3  0
  7 12  3  0
  7 15  4  0
  7 19  3  0
  7 21  1  0
  8 10  3  0
  8 14  3  0
  8 15  1  0
  8 17  3  0
  8 18  1  0
  8 20  3  0
  9 11  4  0
  9 13  4  0
  9 14  1  0
  9 17  4  0
  9 18  2  0
  9 21  2  0
 10 15  2  0
 10 17  4  0
 10 20  4  0
 10 21  2  0
 11 13  4  0
 11 17  1  0
 11 20  2  0
 12 13  2  0
 12 14  3  0
 12 17  2  0
 12 18  1  0
 12 19  4  0
 12 21  1  0
 13 16  1  0
 14 15  4  0
 14 18  1  0
 14 20  2  0
 15 19  1  0
 15 20  3  0
 15 21  2  0
 16 19  3  0
 17 19  4  0
 17 20  1  0
 18 20  4  0
 18 21  1  0
 20 21  2  0
M  END
$$$$

 Created by Python create_sdf_string function

 28 16  0  0  0  0  0  0  0  0999 V2000
    2.5490   -9.9330   15.1270 C   0  0  0  0  0  0  0  0  0  0  0  0
    2.1203   -5.2757   27.5005 C   0  0  0  0  0  0  0  0  0  0  0  0
    5.0560   -9.6699   17.5499 C   0  0  0  0  0  0  0  0  0  0  0  0
    2.4668  -11.0262   15.8941 C   0  0  0  0  0  0  0  0  0  0  0  0
    5.6408   -8.7169   17.2128 C   0  0  0  0  0  0  0  0  0  0  0  0
    2.8150   -2.7246   28.5919 C   0  0  0  0  0  0  0  0  0  0  0  0
    7.0484   -6.7168   16.3865 O   0  0  0  0  0  0  0  0  0  0  0  0
    4.6039   -8.1884   15.7819 C   0  0  0  0  0  0  0  0  0  0  0  0
    2.7923   -6.3872   27.2673 C   0  0  0  0  0  0  0  0  0  0  0  0
    3.7045  -11.5094   13.3769 C   0  0  0  0  0  0  0  0  0  0  0  0
    3.1112   -6.0864   26.8867 C   0  0  0  0  0  0  0  0  0  0  0  0
    6.9534   -7.0656   16.9766 C   0  0  0  0  0  0  0  0  0  0  0  0
    6.3180   -8.3116   18.3115 C   0  0  0  0  0  0  0  0  0  0  0  0
    1.8868   -3.8567   28.2205 C   0  0  0  0  0  0  0  0  0  0  0  0
    3.5783  -10.1728   15.6165 C   0  0  0  0  0  0  0  0  0  0  0  0
    0.9308   -2.0846   27.3757 C   0  0  0  0  0  0  0  0  0  0  0  0
    0.5958   -2.0327   26.2837 C   0  0  0  0  0  0  0  0  0  0  0  0
    3.8787   -9.2867   15.9349 C   0  0  0  0  0  0  0  0  0  0  0  0
    2.6763   -4.9269   28.6911 C   0  0  0  0  0  0  0  0  0  0  0  0
    3.1123   -3.4118   27.0670 C   0  0  0  0  0  0  0  0  0  0  0  0
    3.9512  -10.5155   17.3723 C   0  0  0  0  0  0  0  0  0  0  0  0
    1.8977   -6.8123   27.3930 N   0  0  0  0  0  0  0  0  0  0  0  0
    2.0244  -11.7941   13.4353 C   0  0  0  0  0  0  0  0  0  0  0  0
    6.8723   -7.5153   17.6442 O   0  0  0  0  0  0  0  0  0  0  0  0
    1.4705   -2.7226   27.2926 C   0  0  0  0  0  0  0  0  0  0  0  0
    2.1994   -7.9863   27.0419 C   0  0  0  0  0  0  0  0  0  0  0  0
    2.7919  -11.3938   13.3451 C   0  0  0  0  0  0  0  0  0  0  0  0
    2.7324   -8.0380   26.7632 C   0  0  0  0  0  0  0  0  0  0  0  0
  2 11  4  0
  2 22  4  0
  3  5  4  0
  3 21  4  0
  4 21  4  0
  5 13  4  0
  7 12  1  0
  8 18  4  0
  9 11  4  0
 10 27  1  0
 12 24  2  0
 15 18  4  0
 16 17  1  0
 16 25  1  0
 23 27  1  0
 26 28  4  0
M  END
$$$$

 Created by Python create_sdf_string function

 28 41  0  0  0  0  0  0  0  0999 V2000
    0.6417   -4.4154   28.0786 N   0  0  0  0  0  0  0  0  0  0  0  0
    4.5224   -9.1618   17.8012 F   0  0  0  0  0  0  0  0  0  0  0  0
    2.8420  -11.0981   13.7999 C   0  0  0  0  0  0  0  0  0  0  0  0
    6.1462   -9.4913   17.5531 C   0  0  0  0  0  0  0  0  0  0  0  0
    2.9702   -2.9720   27.4913 C   0  0  0  0  0  0  0  0  0  0  0  0
    2.6110   -6.0798   26.6169 S   0  0  0  0  0  0  0  0  0  0  0  0
    6.9342   -6.8707   15.5882 P   0  0  0  0  0  0  0  0  0  0  0  0
    4.9227   -7.7511   18.2146 O   0  0  0  0  0  0  0  0  0  0  0  0
    0.8516   -4.3821   27.8935 C   0  0  0  0  0  0  0  0  0  0  0  0
    4.1711   -9.7555   15.5356 P   0  0  0  0  0  0  0  0  0  0  0  0
    1.0902   -1.8436   27.8104 C   0  0  0  0  0  0  0  0  0  0  0  0
    0.5009   -1.4866   26.2772 N   0  0  0  0  0  0  0  0  0  0  0  0
    3.5371   -3.7739   27.8537 C   0  0  0  0  0  0  0  0  0  0  0  0
    3.8329   -5.0053   27.2958 C   0  0  0  0  0  0  0  0  0  0  0  0
    1.4321   -7.1332   27.5121 N   0  0  0  0  0  0  0  0  0  0  0  0
    3.3213  -10.2839   14.6947 He  0  0  0  0  0  0  0  0  0  0  0  0
    7.1607   -6.2587   17.1548 He  0  0  0  0  0  0  0  0  0  0  0  0
    3.9619   -7.7856   14.7607 He  0  0  0  0  0  0  0  0  0  0  0  0
    4.1767  -12.9686   13.8984 He  0  0  0  0  0  0  0  0  0  0  0  0
    2.0425   -6.0647   26.8795 He  0  0  0  0  0  0  0  0  0  0  0  0
    3.5465  -10.8334   16.1243 He  0  0  0  0  0  0  0  0  0  0  0  0
    4.0016   -9.8491   16.6431 He  0  0  0  0  0  0  0  0  0  0  0  0
    2.2382  -13.9331   15.0367 He  0  0  0  0  0  0  0  0  0  0  0  0
    8.3664   -7.1435   18.0455 He  0  0  0  0  0  0  0  0  0  0  0  0
    1.0937   -2.3374   28.8712 He  0  0  0  0  0  0  0  0  0  0  0  0
    2.3435   -7.6860   28.8948 He  0  0  0  0  0  0  0  0  0  0  0  0
    2.0318  -11.0774   13.8944 He  0  0  0  0  0  0  0  0  0  0  0  0
    1.9563   -8.4640   26.3755 He  0  0  0  0  0  0  0  0  0  0  0  0
  1  2  3  0
  1  4  2  0
  1  7  2  0
  1  8  3  0
  1  9  2  0
  1 13  2  0
  1 14  2  0
  1 15  2  0
  2  3  1  0
  2  6  2  0
  2  8  1  0
  2 11  1  0
  3  6  4  0
  3  7  3  0
  3  9  2  0
  3 10  2  0
  3 11  1  0
  4  8  4  0
  4 10  4  0
  4 11  3  0
  5  6  3  0
  5  8  2  0
  5 11  2  0
  5 13  4  0
  5 14  2  0
  5 15  3  0
  6  8  4  0
  6 11  3  0
  6 13  1  0
  6 15  4  0
  7 14  2  0
  8  9  2  0
  8 14  4  0
  9 13  2  0
  9 14  2  0
 10 15  2  0
 11 13  4  0
 11 15  3  0
 12 13  3  0
 12 14  4  0
 13 14  4  0
M  END
$$$$

 Created by Python create_sdf_string function

 28 15  0  0  0  0  0  0  0  0999 V2000
    3.3502  -10.6250   14.7459 C   0  0  0  0  0  0  0  0  0  0  0  0
    0.6695   -4.5254   27.5644 C   0  0  0  0  0  0  0  0  0  0  0  0
    4.8345   -9.4465   17.5922 C   0  0  0  0  0  0  0  0  0  0  0  0
    2.8165  -11.0528   14.2513 C   0  0  0  0  0  0  0  0  0  0  0  0
    5.8608   -8.6234   17.4322 C   0  0  0  0  0  0  0  0  0  0  0  0
    2.9210   -2.8896   27.3740 C   0  0  0  0  0  0  0  0  0  0  0  0
    7.3005   -6.7741   16.8124 C   0  0  0  0  0  0  0  0  0  0  0  0
    4.5769   -8.3269   15.5094 C   0  0  0  0  0  0  0  0  0  0  0  0
    2.8394   -6.2671   26.9237 C   0  0  0  0  0  0  0  0  0  0  0  0
    3.6770  -12.6005   14.2180 C   0  0  0  0  0  0  0  0  0  0  0  0
    1.5940   -6.1967   27.1681 C   0  0  0  0  0  0  0  0  0  0  0  0
    6.9352   -6.8030   16.4473 O   0  0  0  0  0  0  0  0  0  0  0  0
    5.7195   -8.4131   17.4483 C   0  0  0  0  0  0  0  0  0  0  0  0
    1.0735   -4.3011   27.4803 C   0  0  0  0  0  0  0  0  0  0  0  0
    4.3370   -9.6106   15.8763 C   0  0  0  0  0  0  0  0  0  0  0  0
    1.2184   -1.8533   27.5565 C   0  0  0  0  0  0  0  0  0  0  0  0
    0.6874   -1.6669   26.8498 C   0  0  0  0  0  0  0  0  0  0  0  0
    3.6170  -11.3508   15.8191 C   0  0  0  0  0  0  0  0  0  0  0  0
    3.0266   -3.8321   27.3148 C   0  0  0  0  0  0  0  0  0  0  0  0
    3.4169   -4.9193   27.2061 C   0  0  0  0  0  0  0  0  0  0  0  0
    4.1088   -9.4186   16.2995 C   0  0  0  0  0  0  0  0  0  0  0  0
    1.7611   -7.2001   27.3475 C   0  0  0  0  0  0  0  0  0  0  0  0
    2.5746  -13.2067   15.1034 C   0  0  0  0  0  0  0  0  0  0  0  0
    7.6298   -7.2590   17.7381 O   0  0  0  0  0  0  0  0  0  0  0  0
    1.0592   -2.3326   28.0696 C   0  0  0  0  0  0  0  0  0  0  0  0
    2.0508   -7.6124   28.4469 C   0  0  0  0  0  0  0  0  0  0  0  0
    2.3385  -11.4366   14.0682 C   0  0  0  0  0  0  0  0  0  0  0  0
    2.2063   -8.0962   26.7592 C   0  0  0  0  0  0  0  0  0  0  0  0
  1  4  1  0
  2 14  4  0
  3 13  4  0
  3 21  4  0
  4 27  1  0
  5 13  4  0
  6 19  4  0
  7 12  2  0
  8 21  4  0
  9 20  4  0
 11 22  1  0
 16 17  1  0
 16 25  1  0
 19 20  4  0
 22 28  1  0
M  END
$$$$

 Created by Python create_sdf_string function

 28 46  0  0  0  0  0  0  0  0999 V2000
    3.7638  -10.7732   13.1121 N   0  0  0  0  0  0  0  0  0  0  0  0
    0.8660   -5.3938   27.6985 C   0  0  0  0  0  0  0  0  0  0  0  0
    5.0444   -9.0669   17.5946 C   0  0  0  0  0  0  0  0  0  0  0  0
    3.1404  -10.3998   15.3065 C   0  0  0  0  0  0  0  0  0  0  0  0
    6.2919   -8.4884   17.3153 C   0  0  0  0  0  0  0  0  0  0  0  0
    7.8130   -6.5539   17.6602 C   0  0  0  0  0  0  0  0  0  0  0  0
    3.6134   -7.0018   26.6622 C   0  0  0  0  0  0  0  0  0  0  0  0
    3.8512  -12.6031   14.9355 C   0  0  0  0  0  0  0  0  0  0  0  0
    1.5175   -5.0436   28.0997 S   0  0  0  0  0  0  0  0  0  0  0  0
    4.6974   -9.3036   14.8787 C   0  0  0  0  0  0  0  0  0  0  0  0
    1.1684   -1.8314   26.4317 C   0  0  0  0  0  0  0  0  0  0  0  0
    4.7146  -11.4751   15.9469 C   0  0  0  0  0  0  0  0  0  0  0  0
    3.8354   -5.6838   26.6799 C   0  0  0  0  0  0  0  0  0  0  0  0
    2.7609   -7.9190   16.6589 C   0  0  0  0  0  0  0  0  0  0  0  0
    2.7834   -5.3352   29.0651 C   0  0  0  0  0  0  0  0  0  0  0  0
    7.2047   -8.8037   18.5980 O   0  0  0  0  0  0  0  0  0  0  0  0
    1.8482   -2.1333   26.7455 P   0  0  0  0  0  0  0  0  0  0  0  0
    1.1214   -7.9648   26.9818 N   0  0  0  0  0  0  0  0  0  0  0  0
    2.7161   -3.3103   27.2458 He  0  0  0  0  0  0  0  0  0  0  0  0
    3.8284   -8.0834   15.0427 He  0  0  0  0  0  0  0  0  0  0  0  0
    0.2118   -6.6872   27.4624 He  0  0  0  0  0  0  0  0  0  0  0  0
    7.0935   -5.4971   16.8773 He  0  0  0  0  0  0  0  0  0  0  0  0
    5.7207   -6.8474   17.9735 He  0  0  0  0  0  0  0  0  0  0  0  0
   -0.1141   -3.4762   27.5742 He  0  0  0  0  0  0  0  0  0  0  0  0
    2.2144   -4.1309   26.9939 He  0  0  0  0  0  0  0  0  0  0  0  0
    2.3476  -13.5658   14.2145 He  0  0  0  0  0  0  0  0  0  0  0  0
    2.0908   -8.4435   28.1097 He  0  0  0  0  0  0  0  0  0  0  0  0
    2.2724  -12.4685   12.4065 He  0  0  0  0  0  0  0  0  0  0  0  0
  1  9  4  0
  1 13  3  0
  1 17  1  0
  1 18  1  0
  2  4  4  0
  2  8  1  0
  2 13  4  0
  3  4  2  0
  3  5  2  0
  3  7  1  0
  3  8  2  0
  3  9  1  0
  3 12  4  0
  4  5  2  0
  4 10  2  0
  4 13  2  0
  4 15  3  0
  5  9  4  0
  5 12  1  0
  5 13  4  0
  5 16  1  0
  5 18  1  0
  6  7  1  0
  6 10  3  0
  6 11  4  0
  6 16  4  0
  7  9  4  0
  7 13  1  0
  8 10  2  0
  9 11  1  0
  9 12  2  0
  9 14  4  0
  9 15  4  0
  9 16  2  0
  9 17  2  0
 10 12  1  0
 10 15  4  0
 10 16  3  0
 11 13  1  0
 12 17  3  0
 12 18  3  0
 14 16  2  0
 15 16  1  0
 15 17  3  0
 15 18  3  0
 16 18  2  0
M  END
$$$$

 Created by Python create_sdf_string function

 28 18  0  0  0  0  0  0  0  0999 V2000
    3.6286  -10.8571   13.8165 N   0  0  0  0  0  0  0  0  0  0  0  0
    0.9863   -5.2004   27.4609 C   0  0  0  0  0  0  0  0  0  0  0  0
    5.2552   -9.5457   17.2455 C   0  0  0  0  0  0  0  0  0  0  0  0
    3.5997  -10.8583   14.8294 C   0  0  0  0  0  0  0  0  0  0  0  0
    5.8446   -8.3557   17.3768 C   0  0  0  0  0  0  0  0  0  0  0  0
    2.7085   -3.2567   26.9047 C   0  0  0  0  0  0  0  0  0  0  0  0
    7.6315   -6.9519   17.8053 C   0  0  0  0  0  0  0  0  0  0  0  0
    3.8374   -8.5990   15.6820 C   0  0  0  0  0  0  0  0  0  0  0  0
    3.2426   -6.9899   26.7838 C   0  0  0  0  0  0  0  0  0  0  0  0
    3.7031  -12.4077   14.6059 C   0  0  0  0  0  0  0  0  0  0  0  0
    1.0146   -6.9274   27.8943 C   0  0  0  0  0  0  0  0  0  0  0  0
    7.2657   -6.4252   17.1981 C   0  0  0  0  0  0  0  0  0  0  0  0
    6.0570   -7.5025   17.3155 C   0  0  0  0  0  0  0  0  0  0  0  0
    1.2193   -4.7932   27.5933 C   0  0  0  0  0  0  0  0  0  0  0  0
    4.1948   -9.7011   15.6793 C   0  0  0  0  0  0  0  0  0  0  0  0
    1.0363   -2.1210   26.8027 C   0  0  0  0  0  0  0  0  0  0  0  0
    0.1358   -3.4185   27.2489 C   0  0  0  0  0  0  0  0  0  0  0  0
    4.5858  -10.9679   16.1741 C   0  0  0  0  0  0  0  0  0  0  0  0
    3.4210   -6.0141   26.9728 C   0  0  0  0  0  0  0  0  0  0  0  0
    2.4130   -3.9601   27.1044 C   0  0  0  0  0  0  0  0  0  0  0  0
    3.7080   -8.0669   16.3717 C   0  0  0  0  0  0  0  0  0  0  0  0
    2.3735   -5.7979   28.4203 C   0  0  0  0  0  0  0  0  0  0  0  0
    2.7992  -12.8937   14.6473 C   0  0  0  0  0  0  0  0  0  0  0  0
    6.9731   -8.1552   18.3509 O   0  0  0  0  0  0  0  0  0  0  0  0
    1.5968   -2.1438   26.7746 C   0  0  0  0  0  0  0  0  0  0  0  0
    2.0417   -8.0410   28.0349 C   0  0  0  0  0  0  0  0  0  0  0  0
    2.6765  -12.2878   13.1385 O   0  0  0  0  0  0  0  0  0  0  0  0
    1.4375   -7.7421   27.0720 N   0  0  0  0  0  0  0  0  0  0  0  0
  1  4  4  0
  2 14  1  0
  3  5  4  0
  3 18  4  0
  5 13  4  0
  5 24  4  0
  6 20  4  0
  6 25  4  0
  7 12  4  0
  7 24  4  0
  8 15  4  0
  8 21  4  0
  9 19  1  0
 11 22  1  0
 11 26  1  0
 11 28  1  0
 16 17  4  0
 16 25  4  0
M  END
$$$$

 Created by Python create_sdf_string function

 28 37  0  0  0  0  0  0  0  0999 V2000
    4.3311  -10.3744   15.0629 O   0  0  0  0  0  0  0  0  0  0  0  0
    1.8661   -2.0791   26.7284 C   0  0  0  0  0  0  0  0  0  0  0  0
    3.9479  -13.0333   15.1564 O   0  0  0  0  0  0  0  0  0  0  0  0
   -0.1844   -7.5299   27.2143 C   0  0  0  0  0  0  0  0  0  0  0  0
    6.9456   -5.7706   17.2143 F   0  0  0  0  0  0  0  0  0  0  0  0
    0.4671   -5.5403   26.7763 N   0  0  0  0  0  0  0  0  0  0  0  0
    5.2840   -9.5463   15.8310 F   0  0  0  0  0  0  0  0  0  0  0  0
    0.3134   -2.2378   26.2478 C   0  0  0  0  0  0  0  0  0  0  0  0
    5.9510  -11.4173   16.9985 C   0  0  0  0  0  0  0  0  0  0  0  0
    4.0871   -5.0513   26.4223 C   0  0  0  0  0  0  0  0  0  0  0  0
    4.8073   -8.6932   16.8942 O   0  0  0  0  0  0  0  0  0  0  0  0
    1.6511   -6.4443   29.3501 C   0  0  0  0  0  0  0  0  0  0  0  0
    2.3209  -12.9327   14.2482 C   0  0  0  0  0  0  0  0  0  0  0  0
    6.1868   -7.0270   17.8261 O   0  0  0  0  0  0  0  0  0  0  0  0
    3.2888   -7.2406   27.3391 O   0  0  0  0  0  0  0  0  0  0  0  0
    3.1572  -10.5303   13.2038 He  0  0  0  0  0  0  0  0  0  0  0  0
    1.8026   -4.2804   28.2328 He  0  0  0  0  0  0  0  0  0  0  0  0
    5.4631   -8.7204   17.3645 He  0  0  0  0  0  0  0  0  0  0  0  0
    6.3084   -8.6652   17.3166 He  0  0  0  0  0  0  0  0  0  0  0  0
    8.5926   -7.4442   18.4026 He  0  0  0  0  0  0  0  0  0  0  0  0
    4.2149   -8.6788   16.0094 He  0  0  0  0  0  0  0  0  0  0  0  0
    3.4217   -6.1357   25.1809 He  0  0  0  0  0  0  0  0  0  0  0  0
    6.3740   -6.3551   18.0275 He  0  0  0  0  0  0  0  0  0  0  0  0
    0.8046   -3.0947   27.1201 He  0  0  0  0  0  0  0  0  0  0  0  0
    2.0476   -3.7766   25.7995 He  0  0  0  0  0  0  0  0  0  0  0  0
    1.4981   -0.6098   26.5765 He  0  0  0  0  0  0  0  0  0  0  0  0
    2.3027  -11.9501   14.5746 He  0  0  0  0  0  0  0  0  0  0  0  0
    0.7963   -7.9729   27.5751 He  0  0  0  0  0  0  0  0  0  0  0  0
  1  2  3  0
  1  3  1  0
  1  5  3  0
  1 10  1  0
  2  7  2  0
  2  8  2  0
  2  9  1  0
  2 12  2  0
  2 13  1  0
  3  4  1  0
  3  5  2  0
  3 11  1  0
  3 13  1  0
  4  6  1  0
  4 10  2  0
  4 11  2  0
  4 13  3  0
  4 15  2  0
  5  6  3  0
  5  9  3  0
  5 14  3  0
  5 15  2  0
  6  9  4  0
  6 10  1  0
  7  9  1  0
  7 13  2  0
  8  9  1  0
  8 10  3  0
  8 13  4  0
  9 13  3  0
  9 14  3  0
  9 15  4  0
 10 12  2  0
 10 13  1  0
 10 14  4  0
 11 13  4  0
 12 14  4  0
M  END
$$$$

 Created by Python create_sdf_string function

 28 19  0  0  0  0  0  0  0  0999 V2000
    3.1671  -10.7923   13.9178 C   0  0  0  0  0  0  0  0  0  0  0  0
    1.2977   -3.9797   27.1718 C   0  0  0  0  0  0  0  0  0  0  0  0
    5.9028   -9.2743   17.4069 C   0  0  0  0  0  0  0  0  0  0  0  0
    3.9544  -10.8752   15.1249 C   0  0  0  0  0  0  0  0  0  0  0  0
    5.8977   -8.4325   17.2950 C   0  0  0  0  0  0  0  0  0  0  0  0
    2.1784   -2.2832   26.7767 C   0  0  0  0  0  0  0  0  0  0  0  0
    8.1287   -7.3908   18.0220 C   0  0  0  0  0  0  0  0  0  0  0  0
    4.2086   -8.8047   16.0961 C   0  0  0  0  0  0  0  0  0  0  0  0
    2.9801   -6.3373   26.2653 C   0  0  0  0  0  0  0  0  0  0  0  0
    3.7046  -12.3167   15.1454 C   0  0  0  0  0  0  0  0  0  0  0  0
    0.6755   -6.5014   27.4204 C   0  0  0  0  0  0  0  0  0  0  0  0
    7.2812   -6.4221   17.2033 O   0  0  0  0  0  0  0  0  0  0  0  0
    7.0334   -7.0552   17.6735 C   0  0  0  0  0  0  0  0  0  0  0  0
    1.1631   -5.4727   27.1214 N   0  0  0  0  0  0  0  0  0  0  0  0
    4.9197  -10.1946   16.2596 C   0  0  0  0  0  0  0  0  0  0  0  0
    0.3618   -2.0495   26.5852 C   0  0  0  0  0  0  0  0  0  0  0  0
    0.4212   -3.1221   27.0417 C   0  0  0  0  0  0  0  0  0  0  0  0
    5.6510  -10.6504   16.7353 C   0  0  0  0  0  0  0  0  0  0  0  0
    3.1249   -5.4916   26.8695 C   0  0  0  0  0  0  0  0  0  0  0  0
    2.4232   -2.9342   26.6914 C   0  0  0  0  0  0  0  0  0  0  0  0
    4.7265   -8.2945   16.7239 C   0  0  0  0  0  0  0  0  0  0  0  0
    1.6307   -6.7933   28.5627 C   0  0  0  0  0  0  0  0  0  0  0  0
    2.8309  -12.6663   14.5276 C   0  0  0  0  0  0  0  0  0  0  0  0
    6.5901   -7.0734   18.0834 O   0  0  0  0  0  0  0  0  0  0  0  0
    1.4470   -1.2879   26.5499 C   0  0  0  0  0  0  0  0  0  0  0  0
    3.0873   -7.1020   27.3171 O   0  0  0  0  0  0  0  0  0  0  0  0
    2.4131  -12.0886   14.4068 C   0  0  0  0  0  0  0  0  0  0  0  0
    1.2449   -7.6469   27.6986 C   0  0  0  0  0  0  0  0  0  0  0  0
  2 14  1  0
  2 17  4  0
  3  5  4  0
  3 18  4  0
  4 10  1  0
  5 21  4  0
  6 20  4  0
  6 25  4  0
  7 13  1  0
  8 21  4  0
  9 19  1  0
  9 26  1  0
 10 23  1  0
 11 14  1  0
 12 13  2  0
 15 18  4  0
 16 17  4  0
 16 25  4  0
 23 27  1  0
M  END
$$$$

 Created by Python create_sdf_string function

 28 36  0  0  0  0  0  0  0  0999 V2000
    1.1251   -3.9598   26.9754 C   0  0  0  0  0  0  0  0  0  0  0  0
    5.1270   -7.9759   18.6672 Cl  0  0  0  0  0  0  0  0  0  0  0  0
    5.3060   -8.3096   16.5992 C   0  0  0  0  0  0  0  0  0  0  0  0
    3.0629   -1.2844   25.1613 O   0  0  0  0  0  0  0  0  0  0  0  0
    8.2518   -6.9625   18.1239 B   0  0  0  0  0  0  0  0  0  0  0  0
    3.6899  -12.2229   15.1601 F   0  0  0  0  0  0  0  0  0  0  0  0
    0.1591   -6.4321   26.9862 C   0  0  0  0  0  0  0  0  0  0  0  0
    4.6500   -6.1026   19.6680 C   0  0  0  0  0  0  0  0  0  0  0  0
   -1.2411   -2.5804   27.1166 C   0  0  0  0  0  0  0  0  0  0  0  0
    2.1173   -4.8196   27.7433 C   0  0  0  0  0  0  0  0  0  0  0  0
    3.0100   -3.1440   28.4352 C   0  0  0  0  0  0  0  0  0  0  0  0
    4.9846   -8.7856   16.9218 C   0  0  0  0  0  0  0  0  0  0  0  0
    2.4795   -7.5063   27.2429 B   0  0  0  0  0  0  0  0  0  0  0  0
    2.4268  -12.9105   13.9856 C   0  0  0  0  0  0  0  0  0  0  0  0
    6.8321   -7.4388   17.4880 O   0  0  0  0  0  0  0  0  0  0  0  0
    1.0657   -8.1474   26.6178 C   0  0  0  0  0  0  0  0  0  0  0  0
    3.9035  -10.2725   14.8378 He  0  0  0  0  0  0  0  0  0  0  0  0
    3.4080  -11.2061   15.8905 He  0  0  0  0  0  0  0  0  0  0  0  0
    3.5177   -8.4323   17.7802 He  0  0  0  0  0  0  0  0  0  0  0  0
    2.4062   -6.4765   27.3785 He  0  0  0  0  0  0  0  0  0  0  0  0
    7.1301   -6.4133   17.0486 He  0  0  0  0  0  0  0  0  0  0  0  0
    0.8861   -5.1838   27.1692 He  0  0  0  0  0  0  0  0  0  0  0  0
    4.9442  -11.0443   14.9423 He  0  0  0  0  0  0  0  0  0  0  0  0
   -0.5147   -3.5395   26.9898 He  0  0  0  0  0  0  0  0  0  0  0  0
    4.9616  -10.0517   15.2197 He  0  0  0  0  0  0  0  0  0  0  0  0
    0.4112   -1.1393   26.9510 He  0  0  0  0  0  0  0  0  0  0  0  0
    3.8888   -8.7107   27.4352 He  0  0  0  0  0  0  0  0  0  0  0  0
    2.8998  -13.0146   14.3455 He  0  0  0  0  0  0  0  0  0  0  0  0
  1  2  3  0
  1  6  3  0
  1  7  2  0
  1  8  3  0
  1  9  1  0
  1 12  3  0
  1 15  3  0
  2  3  1  0
  2  5  4  0
  2 11  2  0
  2 16  2  0
  3  6  3  0
  3  9  1  0
  3 10  2  0
  3 12  2  0
  3 15  4  0
  4 13  2  0
  5 12  3  0
  5 13  4  0
  5 16  2  0
  6 12  2  0
  6 14  1  0
  6 15  1  0
  7  8  1  0
  7 11  4  0
  7 15  3  0
  8 11  2  0
  8 13  3  0
  8 14  3  0
  9 11  2  0
  9 12  3  0
 11 16  4  0
 12 16  2  0
 13 14  2  0
 13 16  3  0
 15 16  4  0
M  END
$$$$

 Created by Python create_sdf_string function

 28 22  0  0  0  0  0  0  0  0999 V2000
    3.7918  -10.4885   15.6263 C   0  0  0  0  0  0  0  0  0  0  0  0
    1.5066   -3.9107   27.1380 C   0  0  0  0  0  0  0  0  0  0  0  0
    5.6339   -8.1059   18.0756 C   0  0  0  0  0  0  0  0  0  0  0  0
    3.3301  -11.1235   15.8142 C   0  0  0  0  0  0  0  0  0  0  0  0
    5.6340   -8.3508   16.6514 C   0  0  0  0  0  0  0  0  0  0  0  0
    2.0363   -1.7109   26.6677 C   0  0  0  0  0  0  0  0  0  0  0  0
    7.9026   -6.9104   17.8078 C   0  0  0  0  0  0  0  0  0  0  0  0
    3.8697   -9.0350   17.0332 C   0  0  0  0  0  0  0  0  0  0  0  0
    2.4412   -6.3314   27.2786 C   0  0  0  0  0  0  0  0  0  0  0  0
    3.6267  -12.2996   14.8551 C   0  0  0  0  0  0  0  0  0  0  0  0
    0.5934   -6.0688   26.9917 C   0  0  0  0  0  0  0  0  0  0  0  0
    7.1628   -7.0954   17.0356 C   0  0  0  0  0  0  0  0  0  0  0  0
    5.9547   -7.8052   18.7372 C   0  0  0  0  0  0  0  0  0  0  0  0
    0.8310   -4.7300   27.0867 C   0  0  0  0  0  0  0  0  0  0  0  0
    4.8011  -11.3345   15.1280 C   0  0  0  0  0  0  0  0  0  0  0  0
   -0.3530   -3.4860   26.8593 C   0  0  0  0  0  0  0  0  0  0  0  0
   -0.3262   -2.5738   26.7652 C   0  0  0  0  0  0  0  0  0  0  0  0
    5.0125  -10.3050   15.6357 C   0  0  0  0  0  0  0  0  0  0  0  0
    2.7348   -5.3811   27.3701 C   0  0  0  0  0  0  0  0  0  0  0  0
    2.4459   -3.1552   27.1720 C   0  0  0  0  0  0  0  0  0  0  0  0
    4.8494   -8.9464   16.7335 C   0  0  0  0  0  0  0  0  0  0  0  0
    2.5009   -7.4754   27.1403 C   0  0  0  0  0  0  0  0  0  0  0  0
    2.8011  -12.9625   14.2642 C   0  0  0  0  0  0  0  0  0  0  0  0
    7.1151   -7.2401   17.1483 C   0  0  0  0  0  0  0  0  0  0  0  0
    0.6975   -1.5153   26.6029 C   0  0  0  0  0  0  0  0  0  0  0  0
    3.2505   -7.9540   27.1457 C   0  0  0  0  0  0  0  0  0  0  0  0
    2.9084  -13.0968   14.3744 C   0  0  0  0  0  0  0  0  0  0  0  0
    1.4696   -7.7487   27.0432 C   0  0  0  0  0  0  0  0  0  0  0  0
  1  4  4  0
  2 14  1  0
  2 20  4  0
  3 13  4  0
  4 10  4  0
  5 21  4  0
  6 20  4  0
  6 25  4  0
  8 21  4  0
  9 19  1  0
  9 22  4  0
 10 15  4  0
 10 23  1  0
 11 14  1  0
 11 28  4  0
 12 24  4  0
 15 18  4  0
 16 17  4  0
 17 25  4  0
 22 26  1  0
 22 28  4  0
 23 27  1  0
M  END
$$$$

 Created by Python create_sdf_string function

 28 58  0  0  0  0  0  0  0  0999 V2000
    4.9196  -10.3083   16.9075 C   0  0  0  0  0  0  0  0  0  0  0  0
    2.4222   -2.5911   27.2894 C   0  0  0  0  0  0  0  0  0  0  0  0
    2.8464  -11.9718   16.7217 O   0  0  0  0  0  0  0  0  0  0  0  0
    4.0956   -9.1816   15.9192 C   0  0  0  0  0  0  0  0  0  0  0  0
    1.7770   -8.0116   15.0993 N   0  0  0  0  0  0  0  0  0  0  0  0
    1.8482   -5.1553   26.7136 N   0  0  0  0  0  0  0  0  0  0  0  0
    5.7909   -7.2670   17.3979 C   0  0  0  0  0  0  0  0  0  0  0  0
    5.4478   -7.3521   17.8817 S   0  0  0  0  0  0  0  0  0  0  0  0
    0.8677   -6.2116   26.1359 C   0  0  0  0  0  0  0  0  0  0  0  0
   -0.1181   -4.3484   26.6250 O   0  0  0  0  0  0  0  0  0  0  0  0
   -1.7868   -3.5438   27.2119 O   0  0  0  0  0  0  0  0  0  0  0  0
    3.7969  -10.6411   14.2840 C   0  0  0  0  0  0  0  0  0  0  0  0
    2.7543   -2.6942   27.7569 N   0  0  0  0  0  0  0  0  0  0  0  0
    3.3556   -8.3002   18.6605 I   0  0  0  0  0  0  0  0  0  0  0  0
    3.7716   -6.2813   27.3729 C   0  0  0  0  0  0  0  0  0  0  0  0
    1.9485  -12.4664   15.0658 C   0  0  0  0  0  0  0  0  0  0  0  0
    0.0898   -2.3802   26.7140 C   0  0  0  0  0  0  0  0  0  0  0  0
    4.4711   -8.5689   29.0102 C   0  0  0  0  0  0  0  0  0  0  0  0
    2.4140  -13.3740   15.4388 B   0  0  0  0  0  0  0  0  0  0  0  0
    0.6966   -7.8892   27.2477 C   0  0  0  0  0  0  0  0  0  0  0  0
    5.1412   -8.9918   19.5410 He  0  0  0  0  0  0  0  0  0  0  0  0
    1.9397   -3.0543   26.3675 He  0  0  0  0  0  0  0  0  0  0  0  0
    8.1162   -6.3681   18.2704 He  0  0  0  0  0  0  0  0  0  0  0  0
    2.9095  -12.1988   15.3239 He  0  0  0  0  0  0  0  0  0  0  0  0
   -0.1022   -5.6484   26.2527 He  0  0  0  0  0  0  0  0  0  0  0  0
    4.2808  -12.3047   14.9247 He  0  0  0  0  0  0  0  0  0  0  0  0
    1.6949   -6.0523   27.3867 He  0  0  0  0  0  0  0  0  0  0  0  0
    6.9574   -7.5965   17.5537 He  0  0  0  0  0  0  0  0  0  0  0  0
  1  3  2  0
  1  5  3  0
  1  8  4  0
  1  9  2  0
  1 13  2  0
  1 15  1  0
  1 17  3  0
  1 19  2  0
  2  3  2  0
  2 14  1  0
  2 15  1  0
  2 17  3  0
  3  5  4  0
  3 10  3  0
  3 12  4  0
  3 13  2  0
  3 16  4  0
  3 18  2  0
  4  5  1  0
  4  7  3  0
  4 10  2  0
  4 12  4  0
  4 18  3  0
  4 20  2  0
  5  7  1  0
  5  9  4  0
  5 11  3  0
  5 15  2  0
  5 16  2  0
  5 20  4  0
  6  7  4  0
  6 11  2  0
  6 12  3  0
  6 14  1  0
  6 16  1  0
  6 17  2  0
  6 19  3  0
  7 12  2  0
  8 10  4  0
  8 17  1  0
  8 20  2  0
  9 19  2  0
 10 11  4  0
 10 12  1  0
 10 14  3  0
 10 17  3  0
 11 12  3  0
 11 16  3  0
 11 17  4  0
 11 18  4  0
 12 14  1  0
 12 16  1  0
 12 17  2  0
 14 16  3  0
 14 17  3  0
 14 19  2  0
 16 19  1  0
 17 19  1  0
M  END
$$$$

 Created by Python create_sdf_string function

 28 20  0  0  0  0  0  0  0  0999 V2000
    5.0995   -9.2350   17.3058 C   0  0  0  0  0  0  0  0  0  0  0  0
    2.0675   -3.1691   27.0519 C   0  0  0  0  0  0  0  0  0  0  0  0
    6.0228   -8.4384   18.4982 C   0  0  0  0  0  0  0  0  0  0  0  0
    2.5985  -11.3673   16.2569 C   0  0  0  0  0  0  0  0  0  0  0  0
    3.4988   -9.4932   16.0491 C   0  0  0  0  0  0  0  0  0  0  0  0
    1.5420   -3.1218   26.9032 C   0  0  0  0  0  0  0  0  0  0  0  0
    7.6020   -7.1270   17.8484 C   0  0  0  0  0  0  0  0  0  0  0  0
    2.6176   -8.8052   15.9724 C   0  0  0  0  0  0  0  0  0  0  0  0
    2.4830   -5.1518   27.1854 N   0  0  0  0  0  0  0  0  0  0  0  0
    3.0838  -12.4074   15.5688 C   0  0  0  0  0  0  0  0  0  0  0  0
    0.0068   -5.7595   26.8331 C   0  0  0  0  0  0  0  0  0  0  0  0
    5.9552   -7.5834   16.9396 C   0  0  0  0  0  0  0  0  0  0  0  0
    5.5369   -8.7077   17.8689 C   0  0  0  0  0  0  0  0  0  0  0  0
    0.8846   -5.9711   26.9765 C   0  0  0  0  0  0  0  0  0  0  0  0
    3.9033  -11.9794   14.9415 C   0  0  0  0  0  0  0  0  0  0  0  0
   -0.3075   -4.2698   26.8445 C   0  0  0  0  0  0  0  0  0  0  0  0
   -0.9367   -3.5395   26.7594 C   0  0  0  0  0  0  0  0  0  0  0  0
    3.6951  -10.6131   15.2852 C   0  0  0  0  0  0  0  0  0  0  0  0
    1.8386   -6.2246   27.2133 C   0  0  0  0  0  0  0  0  0  0  0  0
    2.8976   -2.9950   27.2906 C   0  0  0  0  0  0  0  0  0  0  0  0
    4.3019   -8.6831   17.0327 C   0  0  0  0  0  0  0  0  0  0  0  0
    3.5225   -6.3437   27.5467 C   0  0  0  0  0  0  0  0  0  0  0  0
    2.4751  -12.7414   15.4443 C   0  0  0  0  0  0  0  0  0  0  0  0
    6.7692   -7.4532   17.6087 C   0  0  0  0  0  0  0  0  0  0  0  0
    0.0531   -2.4445   26.7702 C   0  0  0  0  0  0  0  0  0  0  0  0
    3.6015   -7.4961   27.9475 C   0  0  0  0  0  0  0  0  0  0  0  0
    2.2252  -13.6796   15.2344 C   0  0  0  0  0  0  0  0  0  0  0  0
    1.5665   -7.5248   27.4219 C   0  0  0  0  0  0  0  0  0  0  0  0
  1 13  4  0
  1 21  4  0
  2  6  4  0
  2 20  1  0
  3 13  4  0
  4 10  4  0
  4 23  4  0
  5  8  1  0
  5 18  4  0
  6 25  4  0
  7 24  4  0
 10 15  4  0
 10 23  1  0
 11 14  1  0
 12 24  4  0
 15 18  4  0
 16 17  4  0
 17 25  4  0
 22 26  1  0
 23 27  1  0
M  END
$$$$

 Created by Python create_sdf_string function

 28 44  0  0  0  0  0  0  0  0999 V2000
    4.8850  -10.0219   18.0990 N   0  0  0  0  0  0  0  0  0  0  0  0
    2.3214   -3.0066   26.7979 C   0  0  0  0  0  0  0  0  0  0  0  0
    7.0908   -8.3681   19.0892 C   0  0  0  0  0  0  0  0  0  0  0  0
    1.9943  -12.5934   16.7607 C   0  0  0  0  0  0  0  0  0  0  0  0
    1.5328   -4.3168   27.3093 N   0  0  0  0  0  0  0  0  0  0  0  0
    6.4018   -6.8026   16.3506 F   0  0  0  0  0  0  0  0  0  0  0  0
    2.2873   -8.8732   14.8852 O   0  0  0  0  0  0  0  0  0  0  0  0
    3.2251  -12.7526   15.9438 N   0  0  0  0  0  0  0  0  0  0  0  0
    0.0200   -4.5685   27.5051 C   0  0  0  0  0  0  0  0  0  0  0  0
    6.2583   -8.1105   17.9738 C   0  0  0  0  0  0  0  0  0  0  0  0
    1.0775   -6.7710   28.2285 C   0  0  0  0  0  0  0  0  0  0  0  0
    0.1537   -5.2454   28.2299 C   0  0  0  0  0  0  0  0  0  0  0  0
    2.9458   -9.7052   16.3711 C   0  0  0  0  0  0  0  0  0  0  0  0
    3.1019   -5.8640   27.7581 Cl  0  0  0  0  0  0  0  0  0  0  0  0
    0.7235   -1.6523   26.3520 C   0  0  0  0  0  0  0  0  0  0  0  0
    4.0429   -6.8327   26.7821 C   0  0  0  0  0  0  0  0  0  0  0  0
    2.5424  -14.1632   15.5363 N   0  0  0  0  0  0  0  0  0  0  0  0
    2.3333   -7.1282   27.6354 C   0  0  0  0  0  0  0  0  0  0  0  0
    4.4645   -9.4025   14.9961 He  0  0  0  0  0  0  0  0  0  0  0  0
    3.7662   -4.6399   27.0477 He  0  0  0  0  0  0  0  0  0  0  0  0
    5.6461   -7.4948   17.6735 He  0  0  0  0  0  0  0  0  0  0  0  0
    4.3264  -12.5069   15.0678 He  0  0  0  0  0  0  0  0  0  0  0  0
    0.1092   -1.2879   25.9504 He  0  0  0  0  0  0  0  0  0  0  0  0
    1.2859   -7.2429   27.2596 He  0  0  0  0  0  0  0  0  0  0  0  0
    2.5320   -3.5634   27.3007 He  0  0  0  0  0  0  0  0  0  0  0  0
    3.2068   -8.8411   16.4023 He  0  0  0  0  0  0  0  0  0  0  0  0
    3.7345  -12.9838   15.8617 He  0  0  0  0  0  0  0  0  0  0  0  0
    7.4012   -7.2326   17.0146 He  0  0  0  0  0  0  0  0  0  0  0  0
  1  2  1  0
  1  3  2  0
  1  5  2  0
  1  7  3  0
  1  9  1  0
  1 10  1  0
  1 12  3  0
  1 14  2  0
  1 15  2  0
  1 16  1  0
  1 18  2  0
  2  4  1  0
  2  6  4  0
  2  8  1  0
  2  9  3  0
  2 17  1  0
  2 18  3  0
  3  7  2  0
  3 12  3  0
  3 18  2  0
  4 14  1  0
  5  8  4  0
  5 15  2  0
  6  8  2  0
  6 10  1  0
  6 13  2  0
  6 15  2  0
  8  9  1  0
  8 10  2  0
  8 11  4  0
  8 14  3  0
  8 18  4  0
  9 15  4  0
  9 16  4  0
  9 17  1  0
 10 13  3  0
 10 17  1  0
 10 18  3  0
 11 14  4  0
 11 15  4  0
 11 18  2  0
 12 17  3  0
 14 15  3  0
 15 17  2  0
M  END
$$$$

 Created by Python create_sdf_string function

 28 20  0  0  0  0  0  0  0  0999 V2000
    5.0440   -9.5265   17.8782 C   0  0  0  0  0  0  0  0  0  0  0  0
    2.1182   -2.5836   26.6609 C   0  0  0  0  0  0  0  0  0  0  0  0
    6.4914   -8.1150   18.2931 C   0  0  0  0  0  0  0  0  0  0  0  0
    2.4703  -11.8929   16.5342 C   0  0  0  0  0  0  0  0  0  0  0  0
    4.1987   -9.3301   15.5291 C   0  0  0  0  0  0  0  0  0  0  0  0
    1.7486   -4.6916   27.2865 C   0  0  0  0  0  0  0  0  0  0  0  0
    6.4126   -7.3174   16.5014 C   0  0  0  0  0  0  0  0  0  0  0  0
    2.7674   -9.4002   15.0170 C   0  0  0  0  0  0  0  0  0  0  0  0
    3.7303   -4.9949   27.0777 C   0  0  0  0  0  0  0  0  0  0  0  0
    3.1731  -12.3516   15.8419 N   0  0  0  0  0  0  0  0  0  0  0  0
   -0.1545   -3.5143   27.0170 C   0  0  0  0  0  0  0  0  0  0  0  0
    5.6412   -8.1247   17.5543 C   0  0  0  0  0  0  0  0  0  0  0  0
    6.0319   -8.0902   17.6484 C   0  0  0  0  0  0  0  0  0  0  0  0
    1.0477   -6.7266   27.8509 C   0  0  0  0  0  0  0  0  0  0  0  0
    3.9317  -12.4062   15.1564 O   0  0  0  0  0  0  0  0  0  0  0  0
    0.3711   -4.6951   27.3087 C   0  0  0  0  0  0  0  0  0  0  0  0
    0.1041   -1.5199   26.2838 C   0  0  0  0  0  0  0  0  0  0  0  0
    3.3122  -10.0466   16.4914 C   0  0  0  0  0  0  0  0  0  0  0  0
    1.4650   -7.3650   27.6917 C   0  0  0  0  0  0  0  0  0  0  0  0
    2.4481   -3.5497   26.9262 C   0  0  0  0  0  0  0  0  0  0  0  0
    3.4553   -9.2477   16.6022 C   0  0  0  0  0  0  0  0  0  0  0  0
    2.9565   -6.1790   27.4377 C   0  0  0  0  0  0  0  0  0  0  0  0
    3.1163  -12.8055   15.7319 C   0  0  0  0  0  0  0  0  0  0  0  0
    7.0183   -7.0248   16.9848 C   0  0  0  0  0  0  0  0  0  0  0  0
    0.4616   -2.2659   26.5537 C   0  0  0  0  0  0  0  0  0  0  0  0
    3.9006   -6.4082   27.0471 C   0  0  0  0  0  0  0  0  0  0  0  0
    2.5350  -14.0106   15.6060 O   0  0  0  0  0  0  0  0  0  0  0  0
    2.2366   -7.4356   27.4983 C   0  0  0  0  0  0  0  0  0  0  0  0
  2 20  4  0
  2 25  4  0
  3 13  4  0
  4 10  4  0
  5  8  1  0
  6 16  4  0
  6 20  4  0
  7 24  4  0
  9 26  1  0
 10 15  4  0
 10 23  1  0
 11 16  4  0
 11 25  4  0
 12 13  4  0
 14 19  4  0
 17 25  4  0
 18 21  1  0
 19 28  4  0
 22 26  1  0
 23 27  1  0
M  END
$$$$

 Created by Python create_sdf_string function

 28 57  0  0  0  0  0  0  0  0999 V2000
    3.4724  -10.0765   18.3221 I   0  0  0  0  0  0  0  0  0  0  0  0
    2.6331  -11.4062   16.7076 O   0  0  0  0  0  0  0  0  0  0  0  0
    4.9290   -9.2080   15.5815 C   0  0  0  0  0  0  0  0  0  0  0  0
    4.0917   -5.0798   28.1740 C   0  0  0  0  0  0  0  0  0  0  0  0
    3.5811  -12.2589   15.7059 S   0  0  0  0  0  0  0  0  0  0  0  0
    6.4213   -8.6956   17.0569 C   0  0  0  0  0  0  0  0  0  0  0  0
   -0.2754   -7.3364   27.1366 S   0  0  0  0  0  0  0  0  0  0  0  0
    4.0870  -13.7943   16.6612 Cl  0  0  0  0  0  0  0  0  0  0  0  0
    1.1153   -5.3414   26.6888 C   0  0  0  0  0  0  0  0  0  0  0  0
   -0.6215   -1.9402   26.0996 N   0  0  0  0  0  0  0  0  0  0  0  0
    3.0613  -11.2055   15.9545 C   0  0  0  0  0  0  0  0  0  0  0  0
    1.1905   -7.6865   29.5203 O   0  0  0  0  0  0  0  0  0  0  0  0
    2.2054   -4.0463   26.4222 C   0  0  0  0  0  0  0  0  0  0  0  0
    3.8898   -9.6097   17.9536 S   0  0  0  0  0  0  0  0  0  0  0  0
    2.6249   -5.3746   27.0824 I   0  0  0  0  0  0  0  0  0  0  0  0
    6.5694   -7.0937   17.7072 C   0  0  0  0  0  0  0  0  0  0  0  0
    2.7638  -12.9453   15.1964 O   0  0  0  0  0  0  0  0  0  0  0  0
    2.5667   -7.1093   28.2877 C   0  0  0  0  0  0  0  0  0  0  0  0
    3.0797   -2.4721   26.4382 He  0  0  0  0  0  0  0  0  0  0  0  0
    7.2721   -8.2909   18.5104 He  0  0  0  0  0  0  0  0  0  0  0  0
    1.7871   -4.9441   27.4842 He  0  0  0  0  0  0  0  0  0  0  0  0
    7.9841   -8.6422   16.5552 He  0  0  0  0  0  0  0  0  0  0  0  0
    3.8426   -8.3629   16.2268 He  0  0  0  0  0  0  0  0  0  0  0  0
    1.3143   -3.2093   26.7457 He  0  0  0  0  0  0  0  0  0  0  0  0
    6.1024   -8.1753   18.1174 He  0  0  0  0  0  0  0  0  0  0  0  0
    2.1469  -12.9184   15.4900 He  0  0  0  0  0  0  0  0  0  0  0  0
    0.7444   -2.4060   26.3966 He  0  0  0  0  0  0  0  0  0  0  0  0
    3.1716   -5.0054   27.3919 He  0  0  0  0  0  0  0  0  0  0  0  0
  1  3  1  0
  1  4  4  0
  1  6  3  0
  1  7  2  0
  1 12  3  0
  1 16  3  0
  2  3  4  0
  2  5  3  0
  2 10  3  0
  2 14  2  0
  3  4  4  0
  3 12  4  0
  3 15  2  0
  4  5  1  0
  4  6  1  0
  4  7  2  0
  4  8  3  0
  4 13  3  0
  4 16  3  0
  4 18  4  0
  5  6  3  0
  5  8  4  0
  5  9  2  0
  5 11  2  0
  5 12  1  0
  5 13  4  0
  5 16  2  0
  6  8  1  0
  6 10  1  0
  6 12  1  0
  6 13  4  0
  6 15  4  0
  6 18  3  0
  7 13  1  0
  7 17  2  0
  7 18  4  0
  8 10  3  0
  8 12  1  0
  8 13  3  0
  8 14  3  0
  8 17  3  0
  9 12  3  0
  9 13  2  0
  9 15  3  0
  9 18  4  0
 10 12  1  0
 10 13  3  0
 11 12  4  0
 11 14  2  0
 11 15  2  0
 11 18  2  0
 12 13  3  0
 12 18  3  0
 14 15  2  0
 15 16  3  0
 15 17  1  0
 16 18  2  0
M  END
$$$$

 Created by Python create_sdf_string function

 28 18  0  0  0  0  0  0  0  0999 V2000
    3.4226  -10.1139   17.5298 C   0  0  0  0  0  0  0  0  0  0  0  0
    2.7172   -2.5117   26.7403 C   0  0  0  0  0  0  0  0  0  0  0  0
    7.1955   -7.6391   18.1679 C   0  0  0  0  0  0  0  0  0  0  0  0
    2.6771  -11.2152   16.5322 C   0  0  0  0  0  0  0  0  0  0  0  0
    4.9165   -9.2106   16.2200 C   0  0  0  0  0  0  0  0  0  0  0  0
    1.5557   -4.7800   27.0935 C   0  0  0  0  0  0  0  0  0  0  0  0
    7.5392   -7.9386   16.7221 C   0  0  0  0  0  0  0  0  0  0  0  0
    4.2706   -8.9305   16.5416 C   0  0  0  0  0  0  0  0  0  0  0  0
    3.7640   -5.7094   28.1214 C   0  0  0  0  0  0  0  0  0  0  0  0
    3.6946  -12.3103   16.0152 C   0  0  0  0  0  0  0  0  0  0  0  0
    0.8207   -3.0260   26.6078 C   0  0  0  0  0  0  0  0  0  0  0  0
    6.2325   -8.7602   16.7732 C   0  0  0  0  0  0  0  0  0  0  0  0
    5.8627   -8.4314   18.0372 C   0  0  0  0  0  0  0  0  0  0  0  0
    0.5416   -6.8591   27.5586 C   0  0  0  0  0  0  0  0  0  0  0  0
    3.3965  -13.3312   16.1417 N   0  0  0  0  0  0  0  0  0  0  0  0
    0.8074   -5.4618   27.1069 C   0  0  0  0  0  0  0  0  0  0  0  0
   -0.1273   -2.0901   26.2800 N   0  0  0  0  0  0  0  0  0  0  0  0
    3.3501  -11.3581   16.3057 C   0  0  0  0  0  0  0  0  0  0  0  0
    1.4279   -7.5922   28.7989 O   0  0  0  0  0  0  0  0  0  0  0  0
    2.0504   -3.7556   26.8805 C   0  0  0  0  0  0  0  0  0  0  0  0
    4.0017   -9.6087   17.6399 C   0  0  0  0  0  0  0  0  0  0  0  0
    2.6779   -5.1487   27.2921 C   0  0  0  0  0  0  0  0  0  0  0  0
    2.1818  -13.1212   15.3572 C   0  0  0  0  0  0  0  0  0  0  0  0
    7.2195   -7.6196   17.6594 C   0  0  0  0  0  0  0  0  0  0  0  0
    0.8449   -2.1713   26.5074 C   0  0  0  0  0  0  0  0  0  0  0  0
    3.6705   -5.0012   27.5433 C   0  0  0  0  0  0  0  0  0  0  0  0
    2.4954  -13.4519   15.3905 C   0  0  0  0  0  0  0  0  0  0  0  0
    2.2313   -6.8657   28.3476 C   0  0  0  0  0  0  0  0  0  0  0  0
  3 24  4  0
  4 18  4  0
  5  8  4  0
  5 12  4  0
  6 16  4  0
  7 12  4  0
  7 24  4  0
  9 26  4  0
  9 28  4  0
 10 15  4  0
 10 18  4  0
 11 25  4  0
 14 16  4  0
 15 27  4  0
 17 25  1  0
 19 28  1  0
 22 26  1  0
 23 27  4  0
M  END
$$$$

 Created by Python create_sdf_string function

 28 52  0  0  0  0  0  0  0  0999 V2000
    1.9712  -10.5937   17.3444 C   0  0  0  0  0  0  0  0  0  0  0  0
    4.7268   -8.8879   15.3856 C   0  0  0  0  0  0  0  0  0  0  0  0
   -0.2340   -4.3049   26.5545 O   0  0  0  0  0  0  0  0  0  0  0  0
    3.4643   -8.9734   17.0850 O   0  0  0  0  0  0  0  0  0  0  0  0
    3.7361   -6.2492   28.7938 C   0  0  0  0  0  0  0  0  0  0  0  0
    4.2583  -13.0618   17.1848 Cl  0  0  0  0  0  0  0  0  0  0  0  0
    1.1167   -1.8578   25.9078 F   0  0  0  0  0  0  0  0  0  0  0  0
    6.4493   -7.8109   16.4078 C   0  0  0  0  0  0  0  0  0  0  0  0
    7.2615   -8.8623   17.8551 C   0  0  0  0  0  0  0  0  0  0  0  0
    1.5748   -6.2411   27.4324 C   0  0  0  0  0  0  0  0  0  0  0  0
    4.1411  -13.1152   16.9069 N   0  0  0  0  0  0  0  0  0  0  0  0
    0.4811   -6.3165   26.7205 C   0  0  0  0  0  0  0  0  0  0  0  0
    1.6100   -4.0615   26.6184 C   0  0  0  0  0  0  0  0  0  0  0  0
    2.4251   -4.9046   28.3162 F   0  0  0  0  0  0  0  0  0  0  0  0
    2.1808  -13.7154   15.6086 O   0  0  0  0  0  0  0  0  0  0  0  0
    7.0141   -6.8391   17.3479 F   0  0  0  0  0  0  0  0  0  0  0  0
   -0.0780   -3.4186   25.6845 N   0  0  0  0  0  0  0  0  0  0  0  0
    2.9474   -4.0299   26.7864 Cl  0  0  0  0  0  0  0  0  0  0  0  0
    3.0151   -9.7706   17.0257 He  0  0  0  0  0  0  0  0  0  0  0  0
    2.2351   -2.9371   26.3763 He  0  0  0  0  0  0  0  0  0  0  0  0
    6.2547   -8.0213   19.5855 He  0  0  0  0  0  0  0  0  0  0  0  0
    7.0998   -7.6815   17.2067 He  0  0  0  0  0  0  0  0  0  0  0  0
   -1.5786   -3.3879   26.2046 He  0  0  0  0  0  0  0  0  0  0  0  0
    3.5706  -11.8884   15.9984 He  0  0  0  0  0  0  0  0  0  0  0  0
    1.7416   -7.1508   28.5344 He  0  0  0  0  0  0  0  0  0  0  0  0
    3.7162   -9.3082   17.3027 He  0  0  0  0  0  0  0  0  0  0  0  0
    2.4867  -13.3093   15.5984 He  0  0  0  0  0  0  0  0  0  0  0  0
    2.9000   -6.6555   28.7417 He  0  0  0  0  0  0  0  0  0  0  0  0
  1  3  3  0
  1 15  1  0
  1 16  3  0
  2  4  4  0
  2  8  4  0
  2  9  2  0
  2 10  4  0
  2 14  3  0
  2 15  3  0
  3  4  4  0
  3  7  2  0
  3  8  1  0
  3  9  4  0
  3 11  4  0
  3 12  2  0
  3 15  3  0
  3 18  3  0
  4 10  1  0
  4 12  4  0
  5  6  3  0
  5  8  3  0
  5 10  3  0
  5 14  1  0
  5 18  4  0
  6  7  2  0
  6  8  1  0
  6 13  2  0
  6 17  3  0
  7  9  1  0
  7 11  2  0
  7 12  4  0
  7 13  1  0
  7 17  4  0
  8  9  1  0
  8 10  3  0
  8 16  3  0
  8 17  1  0
  9 10  3  0
  9 14  1  0
  9 15  3  0
 10 12  1  0
 10 14  1  0
 10 17  4  0
 10 18  1  0
 11 12  4  0
 11 17  2  0
 13 14  1  0
 14 17  4  0
 14 18  1  0
 15 16  4  0
 15 18  3  0
 16 18  1  0
M  END
$$$$

 Created by Python create_sdf_string function

 28 23  0  0  0  0  0  0  0  0999 V2000
    2.8972  -10.1091   16.9128 C   0  0  0  0  0  0  0  0  0  0  0  0
    2.2036   -2.8555   26.7678 C   0  0  0  0  0  0  0  0  0  0  0  0
    6.1418   -8.2660   18.4351 C   0  0  0  0  0  0  0  0  0  0  0  0
    2.3623  -10.9231   16.8632 C   0  0  0  0  0  0  0  0  0  0  0  0
    4.9558   -8.8458   16.1484 C   0  0  0  0  0  0  0  0  0  0  0  0
   -0.5611   -4.6926   26.6737 C   0  0  0  0  0  0  0  0  0  0  0  0
    6.8395   -7.7051   17.2080 C   0  0  0  0  0  0  0  0  0  0  0  0
    3.9593   -9.0526   16.9722 C   0  0  0  0  0  0  0  0  0  0  0  0
    3.6114   -5.9008   28.5115 C   0  0  0  0  0  0  0  0  0  0  0  0
    3.8354  -12.7034   16.5831 N   0  0  0  0  0  0  0  0  0  0  0  0
    0.6011   -2.0969   26.3206 C   0  0  0  0  0  0  0  0  0  0  0  0
    6.0551   -7.9403   16.2890 C   0  0  0  0  0  0  0  0  0  0  0  0
    6.4912   -8.4686   17.8178 C   0  0  0  0  0  0  0  0  0  0  0  0
    1.4099   -5.9188   27.5338 C   0  0  0  0  0  0  0  0  0  0  0  0
    3.5385  -13.0107   16.3633 N   0  0  0  0  0  0  0  0  0  0  0  0
    0.2677   -5.8646   27.1509 C   0  0  0  0  0  0  0  0  0  0  0  0
   -1.1810   -3.5773   26.3724 C   0  0  0  0  0  0  0  0  0  0  0  0
    3.3593  -11.6754   16.4953 C   0  0  0  0  0  0  0  0  0  0  0  0
    1.7075   -7.1794   28.1939 C   0  0  0  0  0  0  0  0  0  0  0  0
    1.5024   -3.5460   26.8590 C   0  0  0  0  0  0  0  0  0  0  0  0
    4.0559   -9.4571   17.2563 C   0  0  0  0  0  0  0  0  0  0  0  0
    2.6354   -5.0613   27.6144 C   0  0  0  0  0  0  0  0  0  0  0  0
    2.2240  -13.6985   15.8182 O   0  0  0  0  0  0  0  0  0  0  0  0
    7.3571   -7.0911   17.5098 C   0  0  0  0  0  0  0  0  0  0  0  0
   -0.1494   -2.9138   26.4129 N   0  0  0  0  0  0  0  0  0  0  0  0
    3.0687   -4.3266   27.3762 C   0  0  0  0  0  0  0  0  0  0  0  0
    2.5955  -13.2918   15.9956 C   0  0  0  0  0  0  0  0  0  0  0  0
    3.0112   -6.8950   28.7577 C   0  0  0  0  0  0  0  0  0  0  0  0
  1  4  4  0
  2 20  4  0
  3 13  4  0
  4 18  4  0
  5  8  4  0
  5 12  4  0
  6 16  4  0
  6 17  4  0
  7 12  4  0
  7 13  1  0
  7 24  1  0
  8 21  4  0
  9 28  4  0
 10 15  4  0
 10 18  4  0
 11 25  4  0
 14 16  1  0
 14 19  4  0
 14 22  4  0
 17 25  1  0
 19 28  4  0
 22 26  1  0
 23 27  1  0
M  END
$$$$

 Created by Python create_sdf_string function

 28 39  0  0  0  0  0  0  0  0999 V2000
    3.0718  -11.4558   16.6466 S   0  0  0  0  0  0  0  0  0  0  0  0
    6.4944   -9.7415   17.4820 N   0  0  0  0  0  0  0  0  0  0  0  0
    4.5418   -7.5255   17.5478 O   0  0  0  0  0  0  0  0  0  0  0  0
    2.8981   -5.2442   27.8691 C   0  0  0  0  0  0  0  0  0  0  0  0
    5.0060  -12.5757   16.0900 N   0  0  0  0  0  0  0  0  0  0  0  0
    6.6736   -8.3470   16.7035 C   0  0  0  0  0  0  0  0  0  0  0  0
    6.1183   -8.5954   16.8809 C   0  0  0  0  0  0  0  0  0  0  0  0
    3.4184  -13.8451   16.8521 C   0  0  0  0  0  0  0  0  0  0  0  0
   -0.6514   -4.3873   24.9410 C   0  0  0  0  0  0  0  0  0  0  0  0
    2.3853   -6.3822   28.4331 C   0  0  0  0  0  0  0  0  0  0  0  0
    1.9475   -3.3217   28.1088 Se  0  0  0  0  0  0  0  0  0  0  0  0
    4.1839   -8.3986   16.9398 C   0  0  0  0  0  0  0  0  0  0  0  0
    2.8417   -5.5202   27.7888 C   0  0  0  0  0  0  0  0  0  0  0  0
    1.7689  -15.0270   16.6497 O   0  0  0  0  0  0  0  0  0  0  0  0
   -0.6585   -2.5247   25.7732 N   0  0  0  0  0  0  0  0  0  0  0  0
    3.0138   -6.5361   28.3656 C   0  0  0  0  0  0  0  0  0  0  0  0
    2.2888   -3.0442   28.5779 He  0  0  0  0  0  0  0  0  0  0  0  0
    2.2949  -11.7351   17.9192 He  0  0  0  0  0  0  0  0  0  0  0  0
    5.3132   -8.5637   16.2572 He  0  0  0  0  0  0  0  0  0  0  0  0
    0.0630   -5.0475   26.8436 He  0  0  0  0  0  0  0  0  0  0  0  0
    7.6457   -8.9134   18.6920 He  0  0  0  0  0  0  0  0  0  0  0  0
   -0.0407   -2.0971   26.3465 He  0  0  0  0  0  0  0  0  0  0  0  0
    0.4535   -5.6945   28.3313 He  0  0  0  0  0  0  0  0  0  0  0  0
   -1.2494   -6.0562   27.3279 He  0  0  0  0  0  0  0  0  0  0  0  0
    2.5664  -10.9944   15.9619 He  0  0  0  0  0  0  0  0  0  0  0  0
    7.2995   -6.4002   18.7605 He  0  0  0  0  0  0  0  0  0  0  0  0
    3.6610   -4.8051   27.5417 He  0  0  0  0  0  0  0  0  0  0  0  0
    2.9288  -13.4881   16.3998 He  0  0  0  0  0  0  0  0  0  0  0  0
  1  2  2  0
  1  7  1  0
  1  9  2  0
  1 10  2  0
  1 15  4  0
  2  4  4  0
  2  7  4  0
  2  8  4  0
  2  9  4  0
  2 11  2  0
  3  7  1  0
  3  9  2  0
  3 11  4  0
  3 12  4  0
  4  5  3  0
  4  6  1  0
  4 10  4  0
  4 13  4  0
  4 16  3  0
  5  9  1  0
  5 10  4  0
  5 12  2  0
  5 16  2  0
  6  7  1  0
  6 12  1  0
  7  8  2  0
  8 11  3  0
  8 16  1  0
  9 14  1  0
  9 15  2  0
  9 16  2  0
 10 11  1  0
 10 16  3  0
 11 14  3  0
 11 15  1  0
 11 16  2  0
 12 15  1  0
 13 14  3  0
 13 15  2  0
M  END
$$$$

 Created by Python create_sdf_string function

 28 18  0  0  0  0  0  0  0  0999 V2000
    3.4866  -11.3158   16.8035 C   0  0  0  0  0  0  0  0  0  0  0  0
    2.4330   -3.0750   27.7799 C   0  0  0  0  0  0  0  0  0  0  0  0
    5.9352   -9.7418   17.2273 C   0  0  0  0  0  0  0  0  0  0  0  0
    2.3058  -12.0900   17.3887 C   0  0  0  0  0  0  0  0  0  0  0  0
    5.0721   -9.0472   16.6897 C   0  0  0  0  0  0  0  0  0  0  0  0
    0.0498   -4.6436   27.0276 C   0  0  0  0  0  0  0  0  0  0  0  0
    7.4782   -8.1264   17.9862 C   0  0  0  0  0  0  0  0  0  0  0  0
    4.3345   -7.9727   16.9918 C   0  0  0  0  0  0  0  0  0  0  0  0
    2.0107   -5.5963   27.8045 C   0  0  0  0  0  0  0  0  0  0  0  0
    3.9932  -12.4022   16.3512 N   0  0  0  0  0  0  0  0  0  0  0  0
    0.2329   -2.3042   26.6366 C   0  0  0  0  0  0  0  0  0  0  0  0
    6.0997   -8.0041   17.0156 C   0  0  0  0  0  0  0  0  0  0  0  0
    6.0048   -8.9031   17.3098 C   0  0  0  0  0  0  0  0  0  0  0  0
    0.4241   -5.8059   27.5640 C   0  0  0  0  0  0  0  0  0  0  0  0
    2.9395  -13.3919   16.5359 C   0  0  0  0  0  0  0  0  0  0  0  0
   -0.8287   -5.5759   27.3369 C   0  0  0  0  0  0  0  0  0  0  0  0
   -1.2268   -4.1322   26.2034 C   0  0  0  0  0  0  0  0  0  0  0  0
    3.2146  -11.1083   16.6696 C   0  0  0  0  0  0  0  0  0  0  0  0
    2.0925   -6.5729   28.1788 C   0  0  0  0  0  0  0  0  0  0  0  0
    1.8930   -3.3704   27.4348 C   0  0  0  0  0  0  0  0  0  0  0  0
    3.6934   -8.7222   16.8994 C   0  0  0  0  0  0  0  0  0  0  0  0
    3.0707   -5.2099   27.7641 C   0  0  0  0  0  0  0  0  0  0  0  0
    1.9189  -14.6300   16.7386 O   0  0  0  0  0  0  0  0  0  0  0  0
    7.5543   -7.1338   17.9225 C   0  0  0  0  0  0  0  0  0  0  0  0
   -0.4925   -2.7517   26.3184 N   0  0  0  0  0  0  0  0  0  0  0  0
    3.4594   -4.4697   27.7089 C   0  0  0  0  0  0  0  0  0  0  0  0
    2.6228  -13.5121   16.6897 C   0  0  0  0  0  0  0  0  0  0  0  0
    3.0036   -6.8017   28.3433 C   0  0  0  0  0  0  0  0  0  0  0  0
  1  4  4  0
  1 10  4  0
  1 18  1  0
  2 20  4  0
  3 13  4  0
  7 24  1  0
  8 21  4  0
  9 14  1  0
  9 19  4  0
  9 22  4  0
 10 15  4  0
 11 25  1  0
 14 16  1  0
 15 27  4  0
 17 25  1  0
 19 28  4  0
 22 26  4  0
 23 27  1  0
M  END
$$$$

 Created by Python create_sdf_string function

 28 52  0  0  0  0  0  0  0  0999 V2000
    3.4850  -12.3344   15.7030 I   0  0  0  0  0  0  0  0  0  0  0  0
    3.1050   -3.4529   28.2142 C   0  0  0  0  0  0  0  0  0  0  0  0
    6.7509   -8.5563   17.0514 C   0  0  0  0  0  0  0  0  0  0  0  0
    1.4692  -11.8906   16.7053 Br  0  0  0  0  0  0  0  0  0  0  0  0
    5.4809   -8.7472   17.1822 C   0  0  0  0  0  0  0  0  0  0  0  0
    0.0223   -4.2932   27.1652 F   0  0  0  0  0  0  0  0  0  0  0  0
    3.9851   -8.2914   17.4109 C   0  0  0  0  0  0  0  0  0  0  0  0
    0.8196   -5.4374   28.2412 C   0  0  0  0  0  0  0  0  0  0  0  0
   -0.5493   -3.2488   26.8401 C   0  0  0  0  0  0  0  0  0  0  0  0
    5.2269   -7.7703   17.7956 C   0  0  0  0  0  0  0  0  0  0  0  0
   -1.1458   -6.8342   26.6607 C   0  0  0  0  0  0  0  0  0  0  0  0
    4.7470  -13.5081   15.9305 C   0  0  0  0  0  0  0  0  0  0  0  0
   -1.6618   -4.2504   25.3538 C   0  0  0  0  0  0  0  0  0  0  0  0
    3.3944   -7.3839   28.4304 C   0  0  0  0  0  0  0  0  0  0  0  0
    1.5447   -2.6145   27.4629 C   0  0  0  0  0  0  0  0  0  0  0  0
    2.9960   -9.4645   16.7656 P   0  0  0  0  0  0  0  0  0  0  0  0
    2.7315   -5.6354   26.9926 C   0  0  0  0  0  0  0  0  0  0  0  0
   -1.8057   -2.1155   24.8439 F   0  0  0  0  0  0  0  0  0  0  0  0
    2.4466   -3.7900   28.2169 F   0  0  0  0  0  0  0  0  0  0  0  0
    2.0007  -14.3158   16.6250 C   0  0  0  0  0  0  0  0  0  0  0  0
    7.0185   -8.0546   17.9980 He  0  0  0  0  0  0  0  0  0  0  0  0
    4.0691  -11.3469   17.0247 He  0  0  0  0  0  0  0  0  0  0  0  0
    5.5775   -8.2375   16.4005 He  0  0  0  0  0  0  0  0  0  0  0  0
    0.1076   -5.7882   26.3560 He  0  0  0  0  0  0  0  0  0  0  0  0
    2.8717  -11.0843   16.6641 He  0  0  0  0  0  0  0  0  0  0  0  0
    1.9293  -14.5454   16.9413 He  0  0  0  0  0  0  0  0  0  0  0  0
    7.7805   -8.5075   17.6779 He  0  0  0  0  0  0  0  0  0  0  0  0
    2.3242   -6.6134   28.4933 He  0  0  0  0  0  0  0  0  0  0  0  0
  1  2  2  0
  1  8  3  0
  1 19  3  0
  2  5  3  0
  2 15  3  0
  2 19  3  0
  2 20  4  0
  3  7  1  0
  3  9  1  0
  3 10  4  0
  3 11  4  0
  3 14  4  0
  3 19  3  0
  4  8  4  0
  4  9  1  0
  4 12  4  0
  5 11  4  0
  5 14  1  0
  5 15  4  0
  5 18  2  0
  6  7  3  0
  6 17  4  0
  6 19  1  0
  7 10  1  0
  7 15  3  0
  7 16  4  0
  7 17  4  0
  7 18  1  0
  8  9  2  0
  8 10  1  0
  8 17  4  0
  8 18  2  0
  8 20  3  0
  9 15  3  0
  9 18  2  0
 10 11  3  0
 10 12  2  0
 10 14  1  0
 10 20  2  0
 11 17  2  0
 12 20  4  0
 13 15  3  0
 13 19  2  0
 14 16  4  0
 14 17  1  0
 15 20  4  0
 16 17  2  0
 16 18  4  0
 17 18  3  0
 17 19  1  0
 17 20  2  0
 18 20  4  0
M  END
$$$$

 Created by Python create_sdf_string function

 28 16  0  0  0  0  0  0  0  0999 V2000
    3.1282  -12.2200   16.0673 C   0  0  0  0  0  0  0  0  0  0  0  0
    2.9366   -3.5082   27.9424 C   0  0  0  0  0  0  0  0  0  0  0  0
    6.7069   -8.6635   17.0162 C   0  0  0  0  0  0  0  0  0  0  0  0
    1.8279  -12.1381   16.8366 C   0  0  0  0  0  0  0  0  0  0  0  0
    5.6238   -9.4827   17.2153 C   0  0  0  0  0  0  0  0  0  0  0  0
   -0.3084   -4.1848   26.7134 N   0  0  0  0  0  0  0  0  0  0  0  0
    7.1594   -7.9884   17.8295 C   0  0  0  0  0  0  0  0  0  0  0  0
    3.8545   -8.7772   16.9253 C   0  0  0  0  0  0  0  0  0  0  0  0
    1.1610   -5.1432   27.2526 C   0  0  0  0  0  0  0  0  0  0  0  0
    3.8088  -11.4807   16.5656 C   0  0  0  0  0  0  0  0  0  0  0  0
   -0.3021   -2.9765   26.5661 C   0  0  0  0  0  0  0  0  0  0  0  0
    5.0541   -8.9568   16.7955 C   0  0  0  0  0  0  0  0  0  0  0  0
    5.5628   -8.0676   17.7697 C   0  0  0  0  0  0  0  0  0  0  0  0
   -0.6041   -5.7708   26.8445 C   0  0  0  0  0  0  0  0  0  0  0  0
    3.5224  -13.1571   16.1875 C   0  0  0  0  0  0  0  0  0  0  0  0
    0.2770   -6.2225   27.0906 C   0  0  0  0  0  0  0  0  0  0  0  0
   -1.7235   -4.3503   26.1608 C   0  0  0  0  0  0  0  0  0  0  0  0
    3.1518  -11.2623   16.6948 C   0  0  0  0  0  0  0  0  0  0  0  0
    2.7782   -6.6857   28.0550 C   0  0  0  0  0  0  0  0  0  0  0  0
    1.2465   -2.6828   27.1178 C   0  0  0  0  0  0  0  0  0  0  0  0
    3.1892   -9.3501   16.7052 C   0  0  0  0  0  0  0  0  0  0  0  0
    2.3445   -5.3155   27.6720 C   0  0  0  0  0  0  0  0  0  0  0  0
    2.0010  -14.4684   16.6566 O   0  0  0  0  0  0  0  0  0  0  0  0
    7.9373   -8.0024   17.7039 C   0  0  0  0  0  0  0  0  0  0  0  0
   -1.1979   -2.2915   25.9020 O   0  0  0  0  0  0  0  0  0  0  0  0
    2.4907   -3.8792   27.8331 C   0  0  0  0  0  0  0  0  0  0  0  0
    2.1986  -13.8066   16.5793 C   0  0  0  0  0  0  0  0  0  0  0  0
    2.6717   -6.6530   28.2357 C   0  0  0  0  0  0  0  0  0  0  0  0
  2 26  4  0
  3  7  4  0
  6 11  4  0
  6 17  1  0
  7 13  4  0
  7 24  1  0
  8 21  4  0
  9 16  4  0
  9 22  4  0
 10 18  1  0
 11 20  4  0
 11 25  2  0
 14 16  1  0
 19 22  1  0
 19 28  1  0
 23 27  1  0
M  END
$$$$

 Created by Python create_sdf_string function

 28 31  0  0  0  0  0  0  0  0999 V2000
    2.4073  -12.6882   15.9537 C   0  0  0  0  0  0  0  0  0  0  0  0
    2.4828   -3.5604   27.9947 C   0  0  0  0  0  0  0  0  0  0  0  0
    1.9225  -12.0752   17.0332 F   0  0  0  0  0  0  0  0  0  0  0  0
   -1.2467   -4.7001   27.7167 C   0  0  0  0  0  0  0  0  0  0  0  0
    7.7377   -8.0597   17.2085 N   0  0  0  0  0  0  0  0  0  0  0  0
   -0.2107   -2.6150   26.4545 Se  0  0  0  0  0  0  0  0  0  0  0  0
    0.0833   -5.8238   26.8074 Cl  0  0  0  0  0  0  0  0  0  0  0  0
    3.7395  -13.1615   16.2406 Cl  0  0  0  0  0  0  0  0  0  0  0  0
   -0.8664   -6.1169   27.1632 N   0  0  0  0  0  0  0  0  0  0  0  0
   -1.2760   -3.2950   24.9912 C   0  0  0  0  0  0  0  0  0  0  0  0
    3.3121  -11.7046   16.5736 C   0  0  0  0  0  0  0  0  0  0  0  0
    4.3748   -6.8259   28.4510 O   0  0  0  0  0  0  0  0  0  0  0  0
    2.7473   -3.0036   27.3505 C   0  0  0  0  0  0  0  0  0  0  0  0
   -0.9831   -2.7540   26.4849 O   0  0  0  0  0  0  0  0  0  0  0  0
    1.6002  -13.0856   17.9643 C   0  0  0  0  0  0  0  0  0  0  0  0
    5.4045   -7.7532   17.8889 He  0  0  0  0  0  0  0  0  0  0  0  0
    6.4222  -10.0802   16.5806 He  0  0  0  0  0  0  0  0  0  0  0  0
    5.0701   -8.8502   16.8080 He  0  0  0  0  0  0  0  0  0  0  0  0
    1.5430   -5.0074   28.3197 He  0  0  0  0  0  0  0  0  0  0  0  0
    3.6909  -12.3795   16.0615 He  0  0  0  0  0  0  0  0  0  0  0  0
    5.0131   -8.2794   17.2984 He  0  0  0  0  0  0  0  0  0  0  0  0
    4.7576   -7.0457   17.8389 He  0  0  0  0  0  0  0  0  0  0  0  0
    2.8653   -8.7956   16.4112 He  0  0  0  0  0  0  0  0  0  0  0  0
    2.6567   -5.1181   27.7300 He  0  0  0  0  0  0  0  0  0  0  0  0
    2.0806  -14.1243   16.2729 He  0  0  0  0  0  0  0  0  0  0  0  0
    9.1751   -8.0741   16.9925 He  0  0  0  0  0  0  0  0  0  0  0  0
    3.2487   -3.4482   29.2754 He  0  0  0  0  0  0  0  0  0  0  0  0
    2.4869   -7.1031   29.3861 He  0  0  0  0  0  0  0  0  0  0  0  0
  1  6  3  0
  1  7  4  0
  1 14  2  0
  2  4  1  0
  2  8  1  0
  2 10  4  0
  3  8  1  0
  3  9  3  0
  3 11  3  0
  3 13  2  0
  3 14  1  0
  4  6  4  0
  4  7  3  0
  4 10  1  0
  4 14  1  0
  5  7  4  0
  5 13  1  0
  5 14  2  0
  6  7  1  0
  6  8  2  0
  6 10  1  0
  6 15  4  0
  7  9  1  0
  7 10  2  0
  8 10  3  0
  8 11  3  0
  8 14  2  0
  9 12  2  0
 10 13  3  0
 11 13  2  0
 12 13  4  0
M  END
$$$$

 Created by Python create_sdf_string function

 28 20  0  0  0  0  0  0  0  0999 V2000
    1.9308  -12.4077   16.6346 C   0  0  0  0  0  0  0  0  0  0  0  0
    2.6249   -3.4287   28.0547 C   0  0  0  0  0  0  0  0  0  0  0  0
    6.3775   -8.1006   17.8484 C   0  0  0  0  0  0  0  0  0  0  0  0
    2.0875  -11.1443   16.9522 C   0  0  0  0  0  0  0  0  0  0  0  0
    6.3669   -9.6932   16.9179 C   0  0  0  0  0  0  0  0  0  0  0  0
   -1.2988   -4.4700   27.0078 C   0  0  0  0  0  0  0  0  0  0  0  0
    7.1808   -8.3022   17.4779 C   0  0  0  0  0  0  0  0  0  0  0  0
    4.5523   -9.3793   16.9505 C   0  0  0  0  0  0  0  0  0  0  0  0
    1.5243   -5.2370   27.7075 C   0  0  0  0  0  0  0  0  0  0  0  0
    3.7157  -12.1181   16.3217 C   0  0  0  0  0  0  0  0  0  0  0  0
    0.0873   -3.0155   26.6112 C   0  0  0  0  0  0  0  0  0  0  0  0
    5.0287   -8.8592   17.0905 C   0  0  0  0  0  0  0  0  0  0  0  0
    5.0428   -7.9998   17.3789 C   0  0  0  0  0  0  0  0  0  0  0  0
    0.3498   -5.1982   27.0750 C   0  0  0  0  0  0  0  0  0  0  0  0
    3.3721  -12.8198   16.1556 C   0  0  0  0  0  0  0  0  0  0  0  0
   -0.3051   -5.5628   27.1592 C   0  0  0  0  0  0  0  0  0  0  0  0
   -1.3568   -3.3986   26.0710 C   0  0  0  0  0  0  0  0  0  0  0  0
    3.7219  -11.3889   16.5088 C   0  0  0  0  0  0  0  0  0  0  0  0
    3.8420   -6.2415   28.2731 O   0  0  0  0  0  0  0  0  0  0  0  0
    1.9575   -3.0749   27.3999 C   0  0  0  0  0  0  0  0  0  0  0  0
    3.1027   -9.4284   16.7246 C   0  0  0  0  0  0  0  0  0  0  0  0
    2.7245   -5.5484   28.2043 C   0  0  0  0  0  0  0  0  0  0  0  0
    2.2599  -14.1756   16.2300 O   0  0  0  0  0  0  0  0  0  0  0  0
    8.4065   -8.0813   17.3750 C   0  0  0  0  0  0  0  0  0  0  0  0
   -1.0521   -2.6672   26.7857 O   0  0  0  0  0  0  0  0  0  0  0  0
    3.3876   -3.9345   28.6229 C   0  0  0  0  0  0  0  0  0  0  0  0
    1.5178  -12.9767   17.3294 C   0  0  0  0  0  0  0  0  0  0  0  0
    2.4044   -6.5296   28.6924 C   0  0  0  0  0  0  0  0  0  0  0  0
  1  4  4  0
  1 27  1  0
  2 20  1  0
  2 26  1  0
  3  7  4  0
  3 13  4  0
  4 21  1  0
  6 17  1  0
  7 24  1  0
  8 12  4  0
  8 21  1  0
  9 14  1  0
  9 22  1  0
 10 15  4  0
 10 18  1  0
 11 17  1  0
 12 13  4  0
 14 16  1  0
 19 22  1  0
 22 28  1  0
M  END
$$$$

 Created by Python create_sdf_string function

 28 40  0  0  0  0  0  0  0  0999 V2000
    6.0277   -7.0564   17.7385 Cl  0  0  0  0  0  0  0  0  0  0  0  0
    3.8168   -9.7535   16.8267 C   0  0  0  0  0  0  0  0  0  0  0  0
    1.4599   -5.1298   28.4799 C   0  0  0  0  0  0  0  0  0  0  0  0
    2.0369  -11.7004   15.8152 O   0  0  0  0  0  0  0  0  0  0  0  0
    4.9176   -8.8513   17.1660 C   0  0  0  0  0  0  0  0  0  0  0  0
   -0.2581   -5.3531   26.7334 C   0  0  0  0  0  0  0  0  0  0  0  0
    3.4678  -12.5604   16.7003 C   0  0  0  0  0  0  0  0  0  0  0  0
   -1.2680   -5.6888   27.1198 C   0  0  0  0  0  0  0  0  0  0  0  0
    3.2359   -6.6537   29.3106 O   0  0  0  0  0  0  0  0  0  0  0  0
    1.6892   -3.2774   27.2979 O   0  0  0  0  0  0  0  0  0  0  0  0
    2.5173   -9.1378   16.9809 Se  0  0  0  0  0  0  0  0  0  0  0  0
    2.4214   -5.3255   28.2441 C   0  0  0  0  0  0  0  0  0  0  0  0
    2.6236  -15.0818   16.4985 O   0  0  0  0  0  0  0  0  0  0  0  0
    9.1509   -8.2635   17.3762 O   0  0  0  0  0  0  0  0  0  0  0  0
   -1.0311   -3.5188   25.8622 O   0  0  0  0  0  0  0  0  0  0  0  0
    3.3188   -4.4757   28.2190 C   0  0  0  0  0  0  0  0  0  0  0  0
    1.9503  -13.4578   17.3256 C   0  0  0  0  0  0  0  0  0  0  0  0
    3.0637   -7.8392   28.4716 C   0  0  0  0  0  0  0  0  0  0  0  0
    1.5534  -12.1012   16.8478 He  0  0  0  0  0  0  0  0  0  0  0  0
    2.5363   -3.3207   27.3626 He  0  0  0  0  0  0  0  0  0  0  0  0
    2.7664  -11.7518   17.4831 He  0  0  0  0  0  0  0  0  0  0  0  0
    5.6938   -8.6953   17.2759 He  0  0  0  0  0  0  0  0  0  0  0  0
   -0.7007   -5.3716   27.4615 He  0  0  0  0  0  0  0  0  0  0  0  0
    7.3445   -8.7825   18.0308 He  0  0  0  0  0  0  0  0  0  0  0  0
   -0.1788   -3.5409   27.2827 He  0  0  0  0  0  0  0  0  0  0  0  0
    4.9322   -9.0136   17.0025 He  0  0  0  0  0  0  0  0  0  0  0  0
   -1.5370   -2.7348   26.4001 He  0  0  0  0  0  0  0  0  0  0  0  0
    3.7048  -11.8732   16.2510 He  0  0  0  0  0  0  0  0  0  0  0  0
  1  2  2  0
  1  7  4  0
  1  9  4  0
  1 17  1  0
  2  5  4  0
  2  6  3  0
  2  7  4  0
  2  9  1  0
  2 10  3  0
  2 11  3  0
  2 13  1  0
  3  7  3  0
  3 16  2  0
  4  5  4  0
  4 18  1  0
  5  8  3  0
  5 12  1  0
  5 17  1  0
  5 18  2  0
  6  8  3  0
  6 13  4  0
  6 14  2  0
  6 17  1  0
  7 10  3  0
  7 13  1  0
  7 14  4  0
  7 16  1  0
  8 10  4  0
  8 13  3  0
  8 15  1  0
  8 18  4  0
  9 10  3  0
 10 11  3  0
 11 14  2  0
 11 17  3  0
 13 17  4  0
 14 17  1  0
 14 18  1  0
 15 17  1  0
 17 18  2  0
M  END
$$$$

 Created by Python create_sdf_string function

 28 18  0  0  0  0  0  0  0  0999 V2000
    1.5484  -12.3437   16.9431 C   0  0  0  0  0  0  0  0  0  0  0  0
    2.1537   -3.7824   27.4701 C   0  0  0  0  0  0  0  0  0  0  0  0
    6.2905   -7.5921   17.9658 C   0  0  0  0  0  0  0  0  0  0  0  0
    2.5921  -11.2330   17.1289 C   0  0  0  0  0  0  0  0  0  0  0  0
    6.1828   -8.5404   17.4182 C   0  0  0  0  0  0  0  0  0  0  0  0
   -0.0069   -5.2429   27.3306 C   0  0  0  0  0  0  0  0  0  0  0  0
    7.1712   -8.2382   17.5966 C   0  0  0  0  0  0  0  0  0  0  0  0
    4.2477   -9.8639   17.0256 C   0  0  0  0  0  0  0  0  0  0  0  0
    1.7000   -5.3363   28.0720 C   0  0  0  0  0  0  0  0  0  0  0  0
    1.7630  -12.1938   16.2125 C   0  0  0  0  0  0  0  0  0  0  0  0
    0.0626   -3.3902   27.1509 C   0  0  0  0  0  0  0  0  0  0  0  0
    4.7041   -9.1611   17.2182 C   0  0  0  0  0  0  0  0  0  0  0  0
    5.2664   -8.8502   17.3694 C   0  0  0  0  0  0  0  0  0  0  0  0
   -0.4438   -5.0138   27.0241 C   0  0  0  0  0  0  0  0  0  0  0  0
    3.5380  -12.1705   16.6014 C   0  0  0  0  0  0  0  0  0  0  0  0
   -1.4084   -5.1136   26.9011 C   0  0  0  0  0  0  0  0  0  0  0  0
   -1.0619   -2.9374   26.4877 C   0  0  0  0  0  0  0  0  0  0  0  0
    3.9019  -11.3897   16.6743 C   0  0  0  0  0  0  0  0  0  0  0  0
    3.4612   -6.4608   28.9642 O   0  0  0  0  0  0  0  0  0  0  0  0
    1.9492   -3.1559   27.2117 O   0  0  0  0  0  0  0  0  0  0  0  0
    2.7785   -9.6783   17.0031 C   0  0  0  0  0  0  0  0  0  0  0  0
    1.9496   -5.7307   28.0919 C   0  0  0  0  0  0  0  0  0  0  0  0
    2.6134  -14.5993   16.6313 O   0  0  0  0  0  0  0  0  0  0  0  0
    8.2633   -8.0473   17.6196 O   0  0  0  0  0  0  0  0  0  0  0  0
   -1.6051   -3.5542   26.0517 O   0  0  0  0  0  0  0  0  0  0  0  0
    3.4141   -4.7879   28.3014 C   0  0  0  0  0  0  0  0  0  0  0  0
    1.9702  -13.5940   16.9705 C   0  0  0  0  0  0  0  0  0  0  0  0
    2.7099   -7.0457   28.5678 C   0  0  0  0  0  0  0  0  0  0  0  0
  1 10  1  0
  1 27  1  0
  2 20  1  0
  4 21  4  0
  5  7  4  0
  5 13  4  0
  6 14  1  0
  7 24  1  0
  8 12  4  0
  9 22  4  0
 11 17  1  0
 12 13  4  0
 14 16  1  0
 15 18  4  0
 17 25  2  0
 19 28  4  0
 22 28  1  0
 23 27  1  0
M  END
$$$$

 Created by Python create_sdf_string function

 28 53  0  0  0  0  0  0  0  0999 V2000
    6.6466   -6.9497   17.7097 C   0  0  0  0  0  0  0  0  0  0  0  0
   -1.0960   -5.7545   27.9215 Cl  0  0  0  0  0  0  0  0  0  0  0  0
    6.8122   -6.5528   17.6209 C   0  0  0  0  0  0  0  0  0  0  0  0
    0.2706   -4.4614   27.3405 C   0  0  0  0  0  0  0  0  0  0  0  0
    1.4349  -12.2289   15.1651 C   0  0  0  0  0  0  0  0  0  0  0  0
   -0.0102   -3.3580   28.2656 C   0  0  0  0  0  0  0  0  0  0  0  0
    3.9772   -8.6386   16.7828 N   0  0  0  0  0  0  0  0  0  0  0  0
    6.6888   -8.5659   16.4583 C   0  0  0  0  0  0  0  0  0  0  0  0
   -0.3969   -5.5758   26.4118 C   0  0  0  0  0  0  0  0  0  0  0  0
    3.8109  -12.4059   16.8349 I   0  0  0  0  0  0  0  0  0  0  0  0
   -0.8000   -4.9249   28.2586 C   0  0  0  0  0  0  0  0  0  0  0  0
   -1.9200   -2.4899   26.6560 C   0  0  0  0  0  0  0  0  0  0  0  0
    2.3327   -5.7193   28.7640 O   0  0  0  0  0  0  0  0  0  0  0  0
    1.9371   -4.6937   26.9695 O   0  0  0  0  0  0  0  0  0  0  0  0
    2.7728  -10.0347   16.1860 C   0  0  0  0  0  0  0  0  0  0  0  0
    2.4833  -15.1581   18.4072 O   0  0  0  0  0  0  0  0  0  0  0  0
    7.8185   -8.3224   18.2631 O   0  0  0  0  0  0  0  0  0  0  0  0
    3.4299   -3.4027   28.1959 O   0  0  0  0  0  0  0  0  0  0  0  0
    1.8728  -13.9831   17.3910 N   0  0  0  0  0  0  0  0  0  0  0  0
    3.8562   -7.6033   29.9223 C   0  0  0  0  0  0  0  0  0  0  0  0
    1.1022  -13.2276   16.7095 He  0  0  0  0  0  0  0  0  0  0  0  0
    0.9018   -3.8184   26.6025 He  0  0  0  0  0  0  0  0  0  0  0  0
    2.7395  -10.3659   17.2402 He  0  0  0  0  0  0  0  0  0  0  0  0
    7.2725   -8.0263   17.5718 He  0  0  0  0  0  0  0  0  0  0  0  0
    4.7313   -9.8473   18.4648 He  0  0  0  0  0  0  0  0  0  0  0  0
    3.6547  -11.3231   15.7342 He  0  0  0  0  0  0  0  0  0  0  0  0
    2.4457   -5.6611   27.5254 He  0  0  0  0  0  0  0  0  0  0  0  0
   -1.0212   -4.6335   25.5970 He  0  0  0  0  0  0  0  0  0  0  0  0
  1 11  3  0
  1 14  4  0
  1 16  4  0
  2  3  4  0
  2  8  1  0
  2 10  1  0
  2 13  3  0
  2 14  1  0
  2 15  1  0
  2 18  4  0
  3  6  4  0
  3  8  3  0
  3  9  1  0
  3 11  2  0
  3 17  1  0
  3 18  1  0
  3 19  4  0
  3 20  4  0
  4  7  2  0
  4 10  2  0
  4 11  3  0
  4 15  4  0
  4 17  1  0
  4 19  2  0
  5  7  2  0
  5  8  3  0
  5 15  2  0
  6 12  3  0
  6 18  1  0
  6 20  1  0
  7  8  4  0
  7 13  2  0
  7 18  2  0
  8  9  1  0
  9 10  4  0
  9 11  1  0
  9 13  3  0
  9 14  2  0
  9 18  1  0
 10 12  1  0
 10 13  3  0
 10 20  2  0
 11 15  4  0
 12 14  4  0
 13 17  1  0
 14 17  2  0
 14 19  1  0
 15 16  3  0
 16 20  4  0
 17 18  4  0
 17 20  3  0
 18 19  1  0
 19 20  1  0
M  END
$$$$

 Created by Python create_sdf_string function

 28 20  0  0  0  0  0  0  0  0999 V2000
    1.4395  -13.2187   16.4609 C   0  0  0  0  0  0  0  0  0  0  0  0
    1.0904   -4.1209   26.8183 C   0  0  0  0  0  0  0  0  0  0  0  0
    6.1838   -7.7020   17.9711 C   0  0  0  0  0  0  0  0  0  0  0  0
    3.4237  -10.2429   17.0721 C   0  0  0  0  0  0  0  0  0  0  0  0
    6.6397   -7.7274   17.1816 C   0  0  0  0  0  0  0  0  0  0  0  0
   -0.8965   -5.8085   28.1756 O   0  0  0  0  0  0  0  0  0  0  0  0
    6.9910   -7.3397   17.6364 C   0  0  0  0  0  0  0  0  0  0  0  0
    4.8994   -9.5699   17.8124 C   0  0  0  0  0  0  0  0  0  0  0  0
    0.4162   -4.6303   27.9203 C   0  0  0  0  0  0  0  0  0  0  0  0
    1.7300  -12.0685   15.7902 C   0  0  0  0  0  0  0  0  0  0  0  0
    0.0279   -2.9377   27.9489 C   0  0  0  0  0  0  0  0  0  0  0  0
    4.4013   -9.1138   16.9191 C   0  0  0  0  0  0  0  0  0  0  0  0
    5.7119   -8.7390   16.7332 C   0  0  0  0  0  0  0  0  0  0  0  0
   -0.5275   -5.2376   26.6645 C   0  0  0  0  0  0  0  0  0  0  0  0
    3.3282  -12.3058   17.2535 N   0  0  0  0  0  0  0  0  0  0  0  0
   -0.6965   -4.7917   27.8860 C   0  0  0  0  0  0  0  0  0  0  0  0
   -1.4494   -2.9381   26.8737 C   0  0  0  0  0  0  0  0  0  0  0  0
    3.3673  -11.7805   16.4691 C   0  0  0  0  0  0  0  0  0  0  0  0
    2.1922   -6.0480   28.9617 O   0  0  0  0  0  0  0  0  0  0  0  0
    1.9903   -4.9277   27.1425 C   0  0  0  0  0  0  0  0  0  0  0  0
    2.8697  -10.1853   16.5703 C   0  0  0  0  0  0  0  0  0  0  0  0
    2.7597   -5.3037   27.9969 C   0  0  0  0  0  0  0  0  0  0  0  0
    2.4047  -14.5661   17.9068 O   0  0  0  0  0  0  0  0  0  0  0  0
    7.8182   -7.6275   17.9176 O   0  0  0  0  0  0  0  0  0  0  0  0
   -1.6047   -4.4338   26.0912 C   0  0  0  0  0  0  0  0  0  0  0  0
    3.2298   -3.8913   28.1929 O   0  0  0  0  0  0  0  0  0  0  0  0
    2.3592  -13.5810   17.2564 C   0  0  0  0  0  0  0  0  0  0  0  0
    3.3920   -6.6525   28.9590 C   0  0  0  0  0  0  0  0  0  0  0  0
  1 10  1  0
  1 27  1  0
  2 20  1  0
  3  8  4  0
  4  8  4  0
  4 21  4  0
  5 13  4  0
  7 24  1  0
  8 12  4  0
  9 16  1  0
 11 17  1  0
 12 13  4  0
 14 16  1  0
 14 25  1  0
 15 18  4  0
 15 27  1  0
 17 25  1  0
 19 28  1  0
 20 22  1  0
 23 27  2  0
M  END
$$$$

 Created by Python create_sdf_string function

 28 46  0  0  0  0  0  0  0  0999 V2000
    1.7105  -13.6934   17.1397 C   0  0  0  0  0  0  0  0  0  0  0  0
    1.1895   -3.3531   27.6241 C   0  0  0  0  0  0  0  0  0  0  0  0
    8.0537   -8.1797   17.4727 C   0  0  0  0  0  0  0  0  0  0  0  0
   -0.6424   -5.7207   28.7858 O   0  0  0  0  0  0  0  0  0  0  0  0
    6.5499   -8.0923   18.0988 C   0  0  0  0  0  0  0  0  0  0  0  0
    4.1170   -8.8697   19.1412 C   0  0  0  0  0  0  0  0  0  0  0  0
    0.7105   -5.0968   27.5604 C   0  0  0  0  0  0  0  0  0  0  0  0
   -0.4731   -3.2950   28.1079 C   0  0  0  0  0  0  0  0  0  0  0  0
    4.5158   -9.2271   17.6065 C   0  0  0  0  0  0  0  0  0  0  0  0
    6.5573   -9.4822   18.1638 N   0  0  0  0  0  0  0  0  0  0  0  0
   -1.3974   -5.2030   26.4645 C   0  0  0  0  0  0  0  0  0  0  0  0
    2.7913  -12.8561   17.6706 N   0  0  0  0  0  0  0  0  0  0  0  0
   -1.1842   -4.4533   29.4259 C   0  0  0  0  0  0  0  0  0  0  0  0
    1.8915   -4.8840   27.4091 C   0  0  0  0  0  0  0  0  0  0  0  0
    3.4207   -4.5373   28.1354 F   0  0  0  0  0  0  0  0  0  0  0  0
    1.3272  -13.9171   17.2618 O   0  0  0  0  0  0  0  0  0  0  0  0
    7.2088   -7.3406   18.5475 O   0  0  0  0  0  0  0  0  0  0  0  0
   -1.9674   -3.0315   25.9780 Cl  0  0  0  0  0  0  0  0  0  0  0  0
    4.6974   -3.7603   28.8219 O   0  0  0  0  0  0  0  0  0  0  0  0
    2.5554   -6.1452   27.9858 C   0  0  0  0  0  0  0  0  0  0  0  0
    5.9380   -7.4488   17.6034 He  0  0  0  0  0  0  0  0  0  0  0  0
    4.3782   -9.9598   16.6593 He  0  0  0  0  0  0  0  0  0  0  0  0
    2.2501  -10.9444   15.7095 He  0  0  0  0  0  0  0  0  0  0  0  0
   -1.5370   -3.5285   27.4388 He  0  0  0  0  0  0  0  0  0  0  0  0
    4.3661  -11.1505   17.6995 He  0  0  0  0  0  0  0  0  0  0  0  0
    1.5573   -5.7393   28.2020 He  0  0  0  0  0  0  0  0  0  0  0  0
    2.1232  -11.6972   17.0088 He  0  0  0  0  0  0  0  0  0  0  0  0
    2.6691  -13.7567   16.4442 He  0  0  0  0  0  0  0  0  0  0  0  0
  1  3  2  0
  1  9  2  0
  1 13  4  0
  1 20  1  0
  2 12  2  0
  2 14  1  0
  3  5  2  0
  3 13  1  0
  3 14  2  0
  3 15  4  0
  3 20  1  0
  4  9  3  0
  4 13  4  0
  4 14  3  0
  4 15  4  0
  5  8  2  0
  5 14  2  0
  5 15  3  0
  6  7  1  0
  6  8  4  0
  6  9  1  0
  6 12  4  0
  6 13  4  0
  6 16  1  0
  6 17  3  0
  7 11  3  0
  7 13  2  0
  7 20  2  0
  8 15  1  0
  8 17  3  0
  8 20  2  0
  9 10  4  0
  9 13  3  0
 10 12  4  0
 10 13  2  0
 10 19  1  0
 11 12  4  0
 11 13  4  0
 11 17  3  0
 11 18  2  0
 12 20  4  0
 13 16  3  0
 13 17  3  0
 14 19  2  0
 18 19  4  0
 18 20  4  0
M  END
$$$$

 Created by Python create_sdf_string function

 28 21  0  0  0  0  0  0  0  0999 V2000
    2.1093  -13.5672   16.9164 C   0  0  0  0  0  0  0  0  0  0  0  0
    1.4513   -3.5128   27.5877 C   0  0  0  0  0  0  0  0  0  0  0  0
    5.6487   -7.7690   17.9252 C   0  0  0  0  0  0  0  0  0  0  0  0
    3.7199  -10.1911   16.7687 C   0  0  0  0  0  0  0  0  0  0  0  0
    8.1705   -8.2968   17.4804 C   0  0  0  0  0  0  0  0  0  0  0  0
   -0.7532   -5.8668   28.7629 O   0  0  0  0  0  0  0  0  0  0  0  0
    7.3132   -8.0264   17.7121 C   0  0  0  0  0  0  0  0  0  0  0  0
    4.5092   -8.8391   17.6453 C   0  0  0  0  0  0  0  0  0  0  0  0
    0.5578   -5.2443   27.6711 C   0  0  0  0  0  0  0  0  0  0  0  0
    2.5884  -11.0303   16.1137 C   0  0  0  0  0  0  0  0  0  0  0  0
   -0.5018   -2.9685   27.7505 C   0  0  0  0  0  0  0  0  0  0  0  0
    5.1630   -9.7179   17.7104 C   0  0  0  0  0  0  0  0  0  0  0  0
    6.4640   -9.5810   17.3385 C   0  0  0  0  0  0  0  0  0  0  0  0
   -1.3376   -4.9129   26.5788 C   0  0  0  0  0  0  0  0  0  0  0  0
    2.7734  -12.5351   17.6346 N   0  0  0  0  0  0  0  0  0  0  0  0
   -0.9853   -4.8496   28.4129 C   0  0  0  0  0  0  0  0  0  0  0  0
   -1.0634   -3.6298   27.5119 C   0  0  0  0  0  0  0  0  0  0  0  0
    4.0142  -11.1463   17.7695 C   0  0  0  0  0  0  0  0  0  0  0  0
    1.5660   -5.8121   28.0089 C   0  0  0  0  0  0  0  0  0  0  0  0
    2.9431   -4.3126   27.8929 C   0  0  0  0  0  0  0  0  0  0  0  0
    2.7047  -11.7909   17.0341 C   0  0  0  0  0  0  0  0  0  0  0  0
    3.3655   -4.5181   27.6521 C   0  0  0  0  0  0  0  0  0  0  0  0
    1.1514  -14.0208   17.3130 O   0  0  0  0  0  0  0  0  0  0  0  0
    7.0872   -7.1413   18.0555 C   0  0  0  0  0  0  0  0  0  0  0  0
   -1.8526   -3.3403   26.2281 C   0  0  0  0  0  0  0  0  0  0  0  0
    4.3130   -4.1230   28.4200 O   0  0  0  0  0  0  0  0  0  0  0  0
    2.5027  -13.9241   16.3963 O   0  0  0  0  0  0  0  0  0  0  0  0
    2.3257   -6.0229   27.9489 C   0  0  0  0  0  0  0  0  0  0  0  0
  1 15  4  0
  1 23  2  0
  1 27  1  0
  2 20  1  0
  3  8  4  0
  3 24  4  0
  4 10  4  0
  4 18  4  0
  5  7  4  0
  6 16  2  0
  7 24  4  0
  8 12  4  0
 10 21  4  0
 11 17  1  0
 12 13  4  0
 15 18  4  0
 15 21  4  0
 16 17  1  0
 19 28  1  0
 20 22  1  0
 20 26  2  0
M  END
$$$$

 Created by Python create_sdf_string function

 28 52  0  0  0  0  0  0  0  0999 V2000
    1.8329   -3.8421   27.7185 C   0  0  0  0  0  0  0  0  0  0  0  0
    8.5151   -8.3474   16.1451 C   0  0  0  0  0  0  0  0  0  0  0  0
    6.6875   -8.3448   18.3052 C   0  0  0  0  0  0  0  0  0  0  0  0
    4.1557   -9.1918   18.3532 C   0  0  0  0  0  0  0  0  0  0  0  0
    0.2217   -6.2107   28.1792 C   0  0  0  0  0  0  0  0  0  0  0  0
    6.1686  -10.5974   16.2438 C   0  0  0  0  0  0  0  0  0  0  0  0
   -0.8983   -4.4613   27.0561 C   0  0  0  0  0  0  0  0  0  0  0  0
    2.4648  -12.6051   17.6345 N   0  0  0  0  0  0  0  0  0  0  0  0
   -0.7912   -3.1542   27.4698 C   0  0  0  0  0  0  0  0  0  0  0  0
    5.3490  -11.4269   18.3681 N   0  0  0  0  0  0  0  0  0  0  0  0
    2.5259   -4.5781   27.8051 P   0  0  0  0  0  0  0  0  0  0  0  0
    1.7975  -12.7612   17.2368 C   0  0  0  0  0  0  0  0  0  0  0  0
    2.2303   -4.3919   28.2562 C   0  0  0  0  0  0  0  0  0  0  0  0
    1.0933  -13.9492   17.7603 O   0  0  0  0  0  0  0  0  0  0  0  0
    6.8287   -6.8521   17.1824 C   0  0  0  0  0  0  0  0  0  0  0  0
   -2.3967   -2.6415   25.5973 C   0  0  0  0  0  0  0  0  0  0  0  0
    4.2130   -4.8667   29.5540 O   0  0  0  0  0  0  0  0  0  0  0  0
    1.8040  -13.5788   15.8252 O   0  0  0  0  0  0  0  0  0  0  0  0
    1.9786   -6.8457   26.4757 C   0  0  0  0  0  0  0  0  0  0  0  0
    1.9882  -13.6304   16.6910 He  0  0  0  0  0  0  0  0  0  0  0  0
    5.7521   -7.0761   18.0752 He  0  0  0  0  0  0  0  0  0  0  0  0
    3.3193  -10.4416   15.5111 He  0  0  0  0  0  0  0  0  0  0  0  0
   -1.0380   -5.6413   28.4677 He  0  0  0  0  0  0  0  0  0  0  0  0
    2.5759  -11.2165   16.5058 He  0  0  0  0  0  0  0  0  0  0  0  0
   -0.4370   -2.5306   27.8185 He  0  0  0  0  0  0  0  0  0  0  0  0
    5.5169   -9.7499   17.6503 He  0  0  0  0  0  0  0  0  0  0  0  0
   -0.3586   -4.4166   28.0884 He  0  0  0  0  0  0  0  0  0  0  0  0
    3.1903   -6.2809   28.4556 He  0  0  0  0  0  0  0  0  0  0  0  0
  1  4  1  0
  1  7  2  0
  1  9  2  0
  1 10  1  0
  1 11  1  0
  2 12  1  0
  2 17  1  0
  2 19  3  0
  3  6  3  0
  3 12  4  0
  3 15  2  0
  3 19  3  0
  4  5  4  0
  4  7  2  0
  5  6  3  0
  5  9  2  0
  5 15  4  0
  5 19  2  0
  6  7  4  0
  6  9  1  0
  6 10  1  0
  6 11  4  0
  6 12  4  0
  6 13  4  0
  6 19  1  0
  7  8  1  0
  7 10  4  0
  7 13  2  0
  7 17  1  0
  8  9  3  0
  8 12  2  0
  8 18  4  0
  9 11  1  0
  9 18  2  0
 10 11  2  0
 10 13  4  0
 10 15  4  0
 10 16  3  0
 10 19  1  0
 11 12  4  0
 11 13  1  0
 11 14  2  0
 11 17  2  0
 11 18  4  0
 12 15  3  0
 12 17  2  0
 13 16  3  0
 13 19  4  0
 14 15  3  0
 14 16  3  0
 15 16  4  0
 16 17  4  0
M  END
$$$$

 Created by Python create_sdf_string function

 28 20  0  0  0  0  0  0  0  0999 V2000
    1.7569  -13.6735   16.8458 C   0  0  0  0  0  0  0  0  0  0  0  0
    1.6746   -3.4875   27.6932 C   0  0  0  0  0  0  0  0  0  0  0  0
    5.6312   -7.6112   18.0112 C   0  0  0  0  0  0  0  0  0  0  0  0
    3.8130  -11.1135   16.0441 C   0  0  0  0  0  0  0  0  0  0  0  0
    7.9050   -8.5265   16.8653 C   0  0  0  0  0  0  0  0  0  0  0  0
   -0.8860   -5.7950   28.0788 O   0  0  0  0  0  0  0  0  0  0  0  0
    6.9967   -9.0262   16.9008 C   0  0  0  0  0  0  0  0  0  0  0  0
    4.8224   -8.7929   17.6821 C   0  0  0  0  0  0  0  0  0  0  0  0
    0.5397   -5.9864   27.7598 C   0  0  0  0  0  0  0  0  0  0  0  0
    3.1577  -11.3187   17.0358 C   0  0  0  0  0  0  0  0  0  0  0  0
   -0.6947   -2.5014   27.2337 C   0  0  0  0  0  0  0  0  0  0  0  0
    5.5152   -9.6641   17.2313 C   0  0  0  0  0  0  0  0  0  0  0  0
    5.5279  -10.7300   16.6601 C   0  0  0  0  0  0  0  0  0  0  0  0
   -1.2242   -4.4022   26.9399 C   0  0  0  0  0  0  0  0  0  0  0  0
    2.5599  -12.7751   17.3122 N   0  0  0  0  0  0  0  0  0  0  0  0
   -0.2417   -4.6996   27.5877 C   0  0  0  0  0  0  0  0  0  0  0  0
   -0.2066   -3.2929   27.4100 C   0  0  0  0  0  0  0  0  0  0  0  0
    4.3778  -11.3733   17.3545 C   0  0  0  0  0  0  0  0  0  0  0  0
    3.3642   -6.1005   28.5084 O   0  0  0  0  0  0  0  0  0  0  0  0
    2.7682   -4.5787   28.2200 C   0  0  0  0  0  0  0  0  0  0  0  0
    2.1943  -11.9278   17.0946 C   0  0  0  0  0  0  0  0  0  0  0  0
    2.2553   -4.6737   27.9362 C   0  0  0  0  0  0  0  0  0  0  0  0
    0.9486  -14.1369   17.6548 O   0  0  0  0  0  0  0  0  0  0  0  0
    6.7382   -7.2982   17.6462 C   0  0  0  0  0  0  0  0  0  0  0  0
   -1.9409   -2.9287   26.1155 C   0  0  0  0  0  0  0  0  0  0  0  0
    4.0015   -4.8249   29.1240 O   0  0  0  0  0  0  0  0  0  0  0  0
    1.8101  -14.0022   15.7395 O   0  0  0  0  0  0  0  0  0  0  0  0
    1.6137   -6.7166   27.1666 C   0  0  0  0  0  0  0  0  0  0  0  0
  1 15  1  0
  1 23  2  0
  1 27  2  0
  2 20  1  0
  3  8  4  0
  3 24  4  0
  5  7  4  0
  5 24  4  0
  8 12  4  0
  9 16  1  0
  9 28  2  0
 10 18  1  0
 10 21  1  0
 11 17  1  0
 12 13  4  0
 13 18  4  0
 15 21  1  0
 16 17  1  0
 20 22  1  0
 20 26  2  0
M  END
$$$$

 Created by Python create_sdf_string function

 28 34  0  0  0  0  0  0  0  0999 V2000
    1.7722  -13.9968   16.8962 O   0  0  0  0  0  0  0  0  0  0  0  0
    8.0102   -8.3889   16.5609 I   0  0  0  0  0  0  0  0  0  0  0  0
    0.6614   -4.8351   29.1952 O   0  0  0  0  0  0  0  0  0  0  0  0
    6.0190   -8.9544   17.5925 C   0  0  0  0  0  0  0  0  0  0  0  0
    4.4230   -8.4955   18.8335 C   0  0  0  0  0  0  0  0  0  0  0  0
    0.3977   -5.8460   29.5732 O   0  0  0  0  0  0  0  0  0  0  0  0
    2.9754  -11.5551   16.5831 F   0  0  0  0  0  0  0  0  0  0  0  0
   -0.5762   -2.2660   27.1334 C   0  0  0  0  0  0  0  0  0  0  0  0
    6.1891   -9.5697   17.6727 C   0  0  0  0  0  0  0  0  0  0  0  0
    3.0237  -12.8213   17.6746 N   0  0  0  0  0  0  0  0  0  0  0  0
    3.2928   -5.3862   27.3512 O   0  0  0  0  0  0  0  0  0  0  0  0
    1.5835   -4.5808   26.9233 P   0  0  0  0  0  0  0  0  0  0  0  0
    0.9509  -11.1942   17.4286 C   0  0  0  0  0  0  0  0  0  0  0  0
    6.8831   -6.8353   17.9747 C   0  0  0  0  0  0  0  0  0  0  0  0
   -2.1273   -3.6504   26.2741 C   0  0  0  0  0  0  0  0  0  0  0  0
    1.8141  -13.5995   14.5859 O   0  0  0  0  0  0  0  0  0  0  0  0
    2.1314   -6.9031   27.3397 S   0  0  0  0  0  0  0  0  0  0  0  0
    1.7726   -3.8542   28.3458 He  0  0  0  0  0  0  0  0  0  0  0  0
    5.5192   -8.3499   18.0334 He  0  0  0  0  0  0  0  0  0  0  0  0
    4.3360  -10.6820   16.1425 He  0  0  0  0  0  0  0  0  0  0  0  0
    4.9189  -11.6862   18.3162 He  0  0  0  0  0  0  0  0  0  0  0  0
   -1.3018   -3.1121   26.3675 He  0  0  0  0  0  0  0  0  0  0  0  0
   -0.4045   -3.4056   26.4659 He  0  0  0  0  0  0  0  0  0  0  0  0
   -0.4194   -2.1826   27.7676 He  0  0  0  0  0  0  0  0  0  0  0  0
    4.2353  -11.7489   16.2724 He  0  0  0  0  0  0  0  0  0  0  0  0
    2.1870   -4.9860   27.4807 He  0  0  0  0  0  0  0  0  0  0  0  0
    0.8401  -13.3695   16.9832 He  0  0  0  0  0  0  0  0  0  0  0  0
    3.2863   -5.5417   28.9849 He  0  0  0  0  0  0  0  0  0  0  0  0
  1  7  1  0
  1 10  1  0
  1 12  3  0
  2  6  1  0
  2 11  2  0
  2 14  2  0
  3  7  3  0
  3 10  4  0
  3 12  3  0
  3 16  4  0
  3 17  1  0
  4  5  4  0
  4  7  3  0
  4  8  2  0
  4 14  2  0
  4 16  3  0
  5  8  4  0
  6  9  1  0
  6 10  1  0
  6 11  1  0
  6 12  2  0
  6 13  2  0
  7 13  1  0
  8 14  4  0
  8 17  2  0
  9 10  4  0
  9 12  4  0
  9 14  3  0
 10 11  3  0
 10 13  2  0
 12 13  4  0
 12 17  1  0
 14 15  1  0
 16 17  4  0
M  END
$$$$

 Created by Python create_sdf_string function

 28 17  0  0  0  0  0  0  0  0999 V2000
    1.8019  -13.5002   16.4793 C   0  0  0  0  0  0  0  0  0  0  0  0
    1.2697   -3.7012   28.3880 C   0  0  0  0  0  0  0  0  0  0  0  0
    5.9356   -8.4524   17.7120 C   0  0  0  0  0  0  0  0  0  0  0  0
    4.5158  -10.6867   16.3810 C   0  0  0  0  0  0  0  0  0  0  0  0
    7.4046   -8.1434   17.1919 C   0  0  0  0  0  0  0  0  0  0  0  0
    0.6323   -5.0221   28.7549 C   0  0  0  0  0  0  0  0  0  0  0  0
    5.9754   -8.8962   17.5590 C   0  0  0  0  0  0  0  0  0  0  0  0
    5.2439   -9.1081   17.7393 C   0  0  0  0  0  0  0  0  0  0  0  0
    0.5949   -5.7561   29.1379 O   0  0  0  0  0  0  0  0  0  0  0  0
    2.7719  -11.8094   16.6856 C   0  0  0  0  0  0  0  0  0  0  0  0
   -0.5417   -2.4169   27.2319 C   0  0  0  0  0  0  0  0  0  0  0  0
    5.6924   -9.7418   17.2068 C   0  0  0  0  0  0  0  0  0  0  0  0
    4.7333  -11.3255   17.6837 C   0  0  0  0  0  0  0  0  0  0  0  0
   -1.5111   -3.1241   26.2701 C   0  0  0  0  0  0  0  0  0  0  0  0
    2.4536  -13.0386   17.4000 N   0  0  0  0  0  0  0  0  0  0  0  0
   -0.4325   -3.9209   26.7830 C   0  0  0  0  0  0  0  0  0  0  0  0
   -0.2552   -2.5112   27.2691 C   0  0  0  0  0  0  0  0  0  0  0  0
    4.0679  -11.6906   16.5381 C   0  0  0  0  0  0  0  0  0  0  0  0
    3.5375   -5.5630   27.1053 O   0  0  0  0  0  0  0  0  0  0  0  0
    1.4713   -4.8860   27.1366 C   0  0  0  0  0  0  0  0  0  0  0  0
    1.5316  -11.2046   17.1319 C   0  0  0  0  0  0  0  0  0  0  0  0
    2.5709   -4.9598   27.3061 C   0  0  0  0  0  0  0  0  0  0  0  0
    0.9538  -13.6396   16.8095 O   0  0  0  0  0  0  0  0  0  0  0  0
    7.0932   -7.4839   17.7933 C   0  0  0  0  0  0  0  0  0  0  0  0
   -1.7066   -3.7799   26.2517 C   0  0  0  0  0  0  0  0  0  0  0  0
    3.0375   -5.5453   28.7869 C   0  0  0  0  0  0  0  0  0  0  0  0
    2.1114  -13.4420   15.0639 O   0  0  0  0  0  0  0  0  0  0  0  0
    1.8331   -6.5583   27.4742 C   0  0  0  0  0  0  0  0  0  0  0  0
  1 15  1  0
  1 23  2  0
  3  8  4  0
  4 12  4  0
  4 18  4  0
  5 24  4  0
  6  9  2  0
  7  8  4  0
  8 12  4  0
 10 18  1  0
 10 21  1  0
 11 17  4  0
 14 25  4  0
 16 25  4  0
 19 22  1  0
 20 22  1  0
 20 28  1  0
M  END
$$$$

 Created by Python create_sdf_string function

 28 26  0  0  0  0  0  0  0  0999 V2000
    5.0247  -10.8383   16.5495 C   0  0  0  0  0  0  0  0  0  0  0  0
    8.5477   -8.4008   16.7829 C   0  0  0  0  0  0  0  0  0  0  0  0
    2.4986  -12.4253   17.5380 C   0  0  0  0  0  0  0  0  0  0  0  0
   -0.5659   -1.7344   26.6886 C   0  0  0  0  0  0  0  0  0  0  0  0
    4.9998   -9.7400   18.3560 C   0  0  0  0  0  0  0  0  0  0  0  0
    3.9284  -11.8456   17.0755 C   0  0  0  0  0  0  0  0  0  0  0  0
    3.1919  -13.4911   17.0104 N   0  0  0  0  0  0  0  0  0  0  0  0
   -0.8303   -3.8330   27.4090 C   0  0  0  0  0  0  0  0  0  0  0  0
    4.1460   -5.2614   27.7080 O   0  0  0  0  0  0  0  0  0  0  0  0
    1.4591   -4.9984   26.8769 C   0  0  0  0  0  0  0  0  0  0  0  0
    1.5763  -14.2039   16.3064 O   0  0  0  0  0  0  0  0  0  0  0  0
    8.4381   -6.9490   17.2618 C   0  0  0  0  0  0  0  0  0  0  0  0
   -2.4788   -3.9235   26.6224 C   0  0  0  0  0  0  0  0  0  0  0  0
    2.2882  -12.9159   15.6654 O   0  0  0  0  0  0  0  0  0  0  0  0
    2.3699   -5.8055   27.1109 C   0  0  0  0  0  0  0  0  0  0  0  0
    2.2612  -13.8763   16.6595 He  0  0  0  0  0  0  0  0  0  0  0  0
    0.4446   -3.5694   28.3737 He  0  0  0  0  0  0  0  0  0  0  0  0
    5.8590   -7.7363   17.4616 He  0  0  0  0  0  0  0  0  0  0  0  0
    0.4457   -4.6027   30.6075 He  0  0  0  0  0  0  0  0  0  0  0  0
    5.3629   -8.2974   17.4569 He  0  0  0  0  0  0  0  0  0  0  0  0
    6.3535  -10.4796   18.3665 He  0  0  0  0  0  0  0  0  0  0  0  0
    0.7811   -5.1256   29.4854 He  0  0  0  0  0  0  0  0  0  0  0  0
   -1.5079   -2.5755   26.0812 He  0  0  0  0  0  0  0  0  0  0  0  0
   -0.7149   -2.8156   27.4356 He  0  0  0  0  0  0  0  0  0  0  0  0
    4.5822  -11.8124   15.5611 He  0  0  0  0  0  0  0  0  0  0  0  0
    1.8398  -12.1564   17.8455 He  0  0  0  0  0  0  0  0  0  0  0  0
    2.0174   -5.4770   28.4396 He  0  0  0  0  0  0  0  0  0  0  0  0
    3.2637   -5.0934   28.7536 He  0  0  0  0  0  0  0  0  0  0  0  0
  1  2  3  0
  1 10  3  0
  1 15  1  0
  2  4  2  0
  2 12  4  0
  2 15  4  0
  4 10  2  0
  4 13  4  0
  5  7  3  0
  6 10  3  0
  6 11  2  0
  7 15  2  0
  8  9  2  0
  8 10  1  0
  8 13  4  0
  8 14  3  0
  9 11  4  0
  9 12  4  0
 10 12  4  0
 10 13  1  0
 10 15  2  0
 11 13  3  0
 11 14  3  0
 12 14  1  0
 12 15  2  0
 14 15  2  0
M  END
$$$$

 Created by Python create_sdf_string function

 28 20  0  0  0  0  0  0  0  0999 V2000
    2.0666  -13.9862   16.4283 C   0  0  0  0  0  0  0  0  0  0  0  0
   -0.0280   -3.8330   27.9446 C   0  0  0  0  0  0  0  0  0  0  0  0
    6.2910   -8.0496   17.9321 C   0  0  0  0  0  0  0  0  0  0  0  0
    5.0316  -10.8961   16.6773 C   0  0  0  0  0  0  0  0  0  0  0  0
    7.6590   -8.2169   17.0229 C   0  0  0  0  0  0  0  0  0  0  0  0
    0.8547   -4.6573   29.9158 O   0  0  0  0  0  0  0  0  0  0  0  0
    5.9986   -9.3171   17.1867 C   0  0  0  0  0  0  0  0  0  0  0  0
    5.9409   -9.0756   17.7221 C   0  0  0  0  0  0  0  0  0  0  0  0
    0.7899   -4.5303   29.1957 C   0  0  0  0  0  0  0  0  0  0  0  0
    2.4985  -12.0788   17.6527 C   0  0  0  0  0  0  0  0  0  0  0  0
   -0.7546   -2.0312   26.7650 C   0  0  0  0  0  0  0  0  0  0  0  0
    5.1153   -9.5410   17.9578 C   0  0  0  0  0  0  0  0  0  0  0  0
    3.9188  -11.1378   17.5519 C   0  0  0  0  0  0  0  0  0  0  0  0
   -1.7021   -2.7880   26.1279 C   0  0  0  0  0  0  0  0  0  0  0  0
    3.3364  -12.7348   16.5504 C   0  0  0  0  0  0  0  0  0  0  0  0
   -0.8449   -4.4983   27.1637 C   0  0  0  0  0  0  0  0  0  0  0  0
   -0.0375   -2.6119   27.6307 C   0  0  0  0  0  0  0  0  0  0  0  0
    4.5327  -11.8265   15.9272 C   0  0  0  0  0  0  0  0  0  0  0  0
    3.7853   -5.4521   27.6599 O   0  0  0  0  0  0  0  0  0  0  0  0
    1.6711   -5.3440   27.0401 C   0  0  0  0  0  0  0  0  0  0  0  0
    2.5157  -11.9707   17.7506 C   0  0  0  0  0  0  0  0  0  0  0  0
    2.3752   -5.2066   28.1006 C   0  0  0  0  0  0  0  0  0  0  0  0
    1.6203  -14.3350   16.6443 O   0  0  0  0  0  0  0  0  0  0  0  0
    7.8443   -7.6538   17.4150 C   0  0  0  0  0  0  0  0  0  0  0  0
   -1.8504   -4.0263   26.3489 C   0  0  0  0  0  0  0  0  0  0  0  0
    2.9834   -5.2384   28.9957 C   0  0  0  0  0  0  0  0  0  0  0  0
    2.4873  -13.6125   15.3648 O   0  0  0  0  0  0  0  0  0  0  0  0
    2.1020   -5.6579   27.0182 C   0  0  0  0  0  0  0  0  0  0  0  0
  1 23  2  0
  2  9  1  0
  2 16  4  0
  2 17  4  0
  3  8  4  0
  4 13  4  0
  4 18  4  0
  5 24  4  0
  6  9  2  0
  7  8  4  0
  8 12  4  0
 10 21  4  0
 11 14  4  0
 11 17  4  0
 14 25  4  0
 15 18  4  0
 16 25  4  0
 20 22  1  0
 20 28  1  0
 22 26  1  0
M  END
$$$$

 Created by Python create_sdf_string function

 28 30  0  0  0  0  0  0  0  0999 V2000
    0.0614   -4.2461   27.9927 C   0  0  0  0  0  0  0  0  0  0  0  0
    4.8843  -11.2962   16.9775 C   0  0  0  0  0  0  0  0  0  0  0  0
    7.8223   -7.6946   16.1588 C   0  0  0  0  0  0  0  0  0  0  0  0
    1.0358   -5.0144   30.1477 O   0  0  0  0  0  0  0  0  0  0  0  0
    6.0563   -8.6817   17.4728 S   0  0  0  0  0  0  0  0  0  0  0  0
   -0.5690   -2.5281   26.2678 N   0  0  0  0  0  0  0  0  0  0  0  0
    4.7829  -10.1696   17.8465 C   0  0  0  0  0  0  0  0  0  0  0  0
    3.7042  -12.6294   18.5803 C   0  0  0  0  0  0  0  0  0  0  0  0
   -1.4420   -3.7462   26.4857 B   0  0  0  0  0  0  0  0  0  0  0  0
    3.5130  -13.2034   15.7009 C   0  0  0  0  0  0  0  0  0  0  0  0
   -0.2592   -4.2401   27.5680 S   0  0  0  0  0  0  0  0  0  0  0  0
    4.1836   -5.0918   27.5419 O   0  0  0  0  0  0  0  0  0  0  0  0
    3.9215  -11.6008   17.1479 C   0  0  0  0  0  0  0  0  0  0  0  0
    2.5608   -5.6393   27.6924 F   0  0  0  0  0  0  0  0  0  0  0  0
    2.0053  -14.7034   16.8858 F   0  0  0  0  0  0  0  0  0  0  0  0
    7.6375   -7.6686   17.3679 N   0  0  0  0  0  0  0  0  0  0  0  0
   -1.6572   -4.2718   26.7943 F   0  0  0  0  0  0  0  0  0  0  0  0
    3.4091   -5.0505   29.8926 F   0  0  0  0  0  0  0  0  0  0  0  0
    2.2634  -14.2481   15.3583 S   0  0  0  0  0  0  0  0  0  0  0  0
    2.3428  -13.6858   15.7786 He  0  0  0  0  0  0  0  0  0  0  0  0
    7.1468   -8.0044   19.0095 He  0  0  0  0  0  0  0  0  0  0  0  0
    6.2301   -9.3732   18.5070 He  0  0  0  0  0  0  0  0  0  0  0  0
    1.2768   -4.4231   28.8892 He  0  0  0  0  0  0  0  0  0  0  0  0
    2.4061  -11.1598   17.1774 He  0  0  0  0  0  0  0  0  0  0  0  0
    0.6524   -2.4023   27.9794 He  0  0  0  0  0  0  0  0  0  0  0  0
    3.7895  -11.8324   16.2435 He  0  0  0  0  0  0  0  0  0  0  0  0
    1.4029   -6.2839   27.3246 He  0  0  0  0  0  0  0  0  0  0  0  0
    1.5370   -3.8161   26.4601 He  0  0  0  0  0  0  0  0  0  0  0  0
  1  3  2  0
  1 10  1  0
  1 11  2  0
  1 13  2  0
  1 16  2  0
  2  7  3  0
  2 12  2  0
  2 19  1  0
  3  4  3  0
  3  5  3  0
  3 16  4  0
  4  5  1  0
  5  7  2  0
  5 10  2  0
  5 11  3  0
  5 12  4  0
  5 18  2  0
  6  7  1  0
  6  9  4  0
  6 17  2  0
  7 16  1  0
  9 10  2  0
 10 17  1  0
 10 18  4  0
 10 19  1  0
 11 17  4  0
 11 19  1  0
 12 18  4  0
 14 18  1  0
 16 18  3  0
M  END
$$$$

 Created by Python create_sdf_string function

 28 21  0  0  0  0  0  0  0  0999 V2000
    2.2120  -14.1331   16.0403 C   0  0  0  0  0  0  0  0  0  0  0  0
    0.2695   -4.1532   27.6561 C   0  0  0  0  0  0  0  0  0  0  0  0
    6.8246   -8.0662   18.4513 C   0  0  0  0  0  0  0  0  0  0  0  0
    4.6799  -10.9989   16.9859 C   0  0  0  0  0  0  0  0  0  0  0  0
    7.0990   -8.0762   16.5756 C   0  0  0  0  0  0  0  0  0  0  0  0
    1.0512   -5.1496   29.9400 O   0  0  0  0  0  0  0  0  0  0  0  0
    6.1805   -8.9737   16.8368 C   0  0  0  0  0  0  0  0  0  0  0  0
    5.8754   -8.9377   18.2709 C   0  0  0  0  0  0  0  0  0  0  0  0
    1.3443   -4.9292   28.7538 C   0  0  0  0  0  0  0  0  0  0  0  0
    2.9361  -11.1591   17.6811 C   0  0  0  0  0  0  0  0  0  0  0  0
   -0.7396   -2.5650   26.3501 C   0  0  0  0  0  0  0  0  0  0  0  0
    5.1600   -9.8406   17.5238 C   0  0  0  0  0  0  0  0  0  0  0  0
    3.0480  -12.3298   17.8735 C   0  0  0  0  0  0  0  0  0  0  0  0
   -1.6611   -3.3775   26.2742 C   0  0  0  0  0  0  0  0  0  0  0  0
    3.2449  -12.9402   15.9756 C   0  0  0  0  0  0  0  0  0  0  0  0
   -0.5874   -4.9031   27.4044 C   0  0  0  0  0  0  0  0  0  0  0  0
    0.4525   -2.9254   27.0517 C   0  0  0  0  0  0  0  0  0  0  0  0
    4.4741  -11.6696   16.0192 C   0  0  0  0  0  0  0  0  0  0  0  0
    3.9598   -5.2136   27.6613 O   0  0  0  0  0  0  0  0  0  0  0  0
    1.4762   -5.9076   27.6586 C   0  0  0  0  0  0  0  0  0  0  0  0
    3.4983  -11.7775   16.6492 C   0  0  0  0  0  0  0  0  0  0  0  0
    2.9174   -5.0484   28.1855 C   0  0  0  0  0  0  0  0  0  0  0  0
    2.0183  -14.7498   16.9030 O   0  0  0  0  0  0  0  0  0  0  0  0
    7.5805   -7.6090   17.5642 N   0  0  0  0  0  0  0  0  0  0  0  0
   -1.6925   -4.5330   26.6758 C   0  0  0  0  0  0  0  0  0  0  0  0
    3.4308   -5.2896   29.2408 C   0  0  0  0  0  0  0  0  0  0  0  0
    2.3340  -14.2014   15.1553 O   0  0  0  0  0  0  0  0  0  0  0  0
    2.1693   -3.7763   26.6869 C   0  0  0  0  0  0  0  0  0  0  0  0
  1 23  1  0
  1 27  1  0
  2 16  4  0
  2 17  4  0
  3  8  4  0
  3 24  4  0
  4 12  1  0
  4 18  4  0
  5  7  4  0
  5 24  4  0
  6  9  2  0
  7 12  4  0
  8 12  4  0
  9 20  1  0
 10 13  4  0
 11 14  4  0
 11 17  4  0
 14 25  4  0
 15 27  1  0
 16 25  4  0
 22 26  1  0
M  END
$$$$

 Created by Python create_sdf_string function

 28 44  0  0  0  0  0  0  0  0999 V2000
    1.9479  -14.5430   15.4446 C   0  0  0  0  0  0  0  0  0  0  0  0
   -0.0638   -4.7446   26.3973 C   0  0  0  0  0  0  0  0  0  0  0  0
    7.4530   -8.6449   18.6070 C   0  0  0  0  0  0  0  0  0  0  0  0
    3.9474  -10.1992   17.6046 C   0  0  0  0  0  0  0  0  0  0  0  0
    6.6309   -7.5188   16.8407 F   0  0  0  0  0  0  0  0  0  0  0  0
    6.1821   -9.0046   16.9609 C   0  0  0  0  0  0  0  0  0  0  0  0
    5.8443   -9.0423   17.6543 N   0  0  0  0  0  0  0  0  0  0  0  0
    1.7472   -4.8539   28.7611 O   0  0  0  0  0  0  0  0  0  0  0  0
    3.4143  -11.9602   18.0761 C   0  0  0  0  0  0  0  0  0  0  0  0
   -0.5096   -2.6632   26.3202 C   0  0  0  0  0  0  0  0  0  0  0  0
    5.7727   -9.4045   18.0617 C   0  0  0  0  0  0  0  0  0  0  0  0
   -1.4648   -3.4853   26.1930 C   0  0  0  0  0  0  0  0  0  0  0  0
    3.4805  -13.3582   15.8534 C   0  0  0  0  0  0  0  0  0  0  0  0
   -0.7198   -4.6062   27.4828 C   0  0  0  0  0  0  0  0  0  0  0  0
    0.3388   -2.6571   27.2261 C   0  0  0  0  0  0  0  0  0  0  0  0
    2.1464   -5.3802   27.9705 C   0  0  0  0  0  0  0  0  0  0  0  0
    3.1431  -12.2752   16.0652 C   0  0  0  0  0  0  0  0  0  0  0  0
    2.7652   -4.7069   28.8989 C   0  0  0  0  0  0  0  0  0  0  0  0
   -1.2293   -4.3056   27.4611 C   0  0  0  0  0  0  0  0  0  0  0  0
    1.0394   -4.5952   30.4714 He  0  0  0  0  0  0  0  0  0  0  0  0
    1.9915  -11.9519   18.2946 He  0  0  0  0  0  0  0  0  0  0  0  0
    4.7480  -11.5582   15.4484 He  0  0  0  0  0  0  0  0  0  0  0  0
    4.7120   -4.5196   28.2217 He  0  0  0  0  0  0  0  0  0  0  0  0
    0.9770  -14.6671   16.7790 He  0  0  0  0  0  0  0  0  0  0  0  0
    8.2425   -6.9749   17.4506 He  0  0  0  0  0  0  0  0  0  0  0  0
    3.7511   -4.3851   29.3614 He  0  0  0  0  0  0  0  0  0  0  0  0
    2.4337  -13.8131   15.4456 He  0  0  0  0  0  0  0  0  0  0  0  0
    1.9238   -3.8174   25.7991 He  0  0  0  0  0  0  0  0  0  0  0  0
  1  2  1  0
  1  8  2  0
  1 18  2  0
  2  3  4  0
  2  7  1  0
  2 14  4  0
  2 16  2  0
  2 17  2  0
  3  7  4  0
  3 12  1  0
  3 14  1  0
  3 15  4  0
  3 18  4  0
  4  7  4  0
  4  9  4  0
  4 11  1  0
  4 12  1  0
  4 15  1  0
  5  6  4  0
  5  8  2  0
  5 10  1  0
  5 18  1  0
  5 19  4  0
  6  9  1  0
  6 11  4  0
  6 12  2  0
  6 15  4  0
  6 17  3  0
  7  8  4  0
  7 11  2  0
  7 12  1  0
  7 13  4  0
  7 15  2  0
  8 12  1  0
  8 16  1  0
  8 17  2  0
  9 16  1  0
 10 12  4  0
 10 17  1  0
 11 14  2  0
 11 16  4  0
 14 18  3  0
 16 19  1  0
 17 18  3  0
M  END
$$$$

 Created by Python create_sdf_string function

 28 27  0  0  0  0  0  0  0  0999 V2000
    1.8947  -14.2652   15.8877 C   0  0  0  0  0  0  0  0  0  0  0  0
    0.5274   -4.1439   27.1228 C   0  0  0  0  0  0  0  0  0  0  0  0
    6.9967   -8.2049   18.5813 C   0  0  0  0  0  0  0  0  0  0  0  0
    4.4751  -10.5771   17.2468 C   0  0  0  0  0  0  0  0  0  0  0  0
    6.6918   -7.7418   16.4866 C   0  0  0  0  0  0  0  0  0  0  0  0
    1.2885   -4.8397   30.0061 O   0  0  0  0  0  0  0  0  0  0  0  0
    5.7994   -8.7327   16.3418 C   0  0  0  0  0  0  0  0  0  0  0  0
    5.8529   -9.1440   18.5785 C   0  0  0  0  0  0  0  0  0  0  0  0
    1.9755   -4.9735   28.9333 C   0  0  0  0  0  0  0  0  0  0  0  0
    3.3765  -11.0823   18.0004 C   0  0  0  0  0  0  0  0  0  0  0  0
   -0.8378   -2.5247   26.1777 C   0  0  0  0  0  0  0  0  0  0  0  0
    5.3545   -9.5292   17.4557 C   0  0  0  0  0  0  0  0  0  0  0  0
    2.6606  -12.0887   17.6836 C   0  0  0  0  0  0  0  0  0  0  0  0
   -1.8392   -3.3291   26.4496 C   0  0  0  0  0  0  0  0  0  0  0  0
    3.3162  -12.6081   16.1201 C   0  0  0  0  0  0  0  0  0  0  0  0
   -0.6206   -4.9426   27.4497 C   0  0  0  0  0  0  0  0  0  0  0  0
    0.4013   -2.8547   26.5253 C   0  0  0  0  0  0  0  0  0  0  0  0
    4.3839  -11.5019   16.1511 C   0  0  0  0  0  0  0  0  0  0  0  0
    4.1778   -4.5876   27.8846 N   0  0  0  0  0  0  0  0  0  0  0  0
    1.9963   -5.1757   27.8900 C   0  0  0  0  0  0  0  0  0  0  0  0
    3.5726  -12.4894   15.8682 C   0  0  0  0  0  0  0  0  0  0  0  0
    3.4145   -4.5851   28.9743 C   0  0  0  0  0  0  0  0  0  0  0  0
    1.1590  -14.5007   16.5491 O   0  0  0  0  0  0  0  0  0  0  0  0
    7.3916   -7.5991   17.5619 C   0  0  0  0  0  0  0  0  0  0  0  0
   -1.6810   -4.4824   27.0219 C   0  0  0  0  0  0  0  0  0  0  0  0
    3.8444   -4.3838   29.7911 O   0  0  0  0  0  0  0  0  0  0  0  0
    2.3149  -14.4311   15.1829 O   0  0  0  0  0  0  0  0  0  0  0  0
    2.3563   -4.0972   26.8367 C   0  0  0  0  0  0  0  0  0  0  0  0
  1 23  1  0
  1 27  2  0
  2 16  4  0
  2 17  4  0
  2 28  1  0
  3  8  4  0
  3 24  4  0
  4 10  4  0
  4 12  1  0
  4 18  4  0
  5  7  4  0
  5 24  4  0
  6  9  1  0
  7 12  4  0
  8 12  4  0
  9 20  1  0
  9 22  1  0
 10 13  4  0
 11 14  4  0
 11 17  4  0
 14 25  4  0
 15 18  4  0
 15 21  4  0
 16 25  4  0
 18 21  4  0
 19 22  1  0
 22 26  2  0
M  END
$$$$

 Created by Python create_sdf_string function

 28 29  0  0  0  0  0  0  0  0999 V2000
    1.2189  -14.7474   16.2843 C   0  0  0  0  0  0  0  0  0  0  0  0
    0.4417   -4.7839   26.7142 C   0  0  0  0  0  0  0  0  0  0  0  0
    7.4361   -8.6652   19.0039 N   0  0  0  0  0  0  0  0  0  0  0  0
    4.4582  -11.0693   17.8619 C   0  0  0  0  0  0  0  0  0  0  0  0
    6.2163   -7.4019   17.1321 C   0  0  0  0  0  0  0  0  0  0  0  0
    0.9289   -4.7888   30.1562 Se  0  0  0  0  0  0  0  0  0  0  0  0
    6.0059   -9.6623   19.6662 N   0  0  0  0  0  0  0  0  0  0  0  0
    3.5182  -11.0801   17.4912 C   0  0  0  0  0  0  0  0  0  0  0  0
   -1.5380   -1.7823   25.9065 C   0  0  0  0  0  0  0  0  0  0  0  0
    5.5007   -9.3659   16.9602 C   0  0  0  0  0  0  0  0  0  0  0  0
   -2.7042   -3.0108   25.7336 C   0  0  0  0  0  0  0  0  0  0  0  0
    3.3357  -12.2563   16.4765 I   0  0  0  0  0  0  0  0  0  0  0  0
    3.7064  -11.6931   15.5923 C   0  0  0  0  0  0  0  0  0  0  0  0
    7.2504   -7.6945   16.7305 C   0  0  0  0  0  0  0  0  0  0  0  0
    3.9700   -3.7887   29.1602 C   0  0  0  0  0  0  0  0  0  0  0  0
    2.6203  -14.5411   14.8075 C   0  0  0  0  0  0  0  0  0  0  0  0
    2.2984   -3.6521   26.2060 C   0  0  0  0  0  0  0  0  0  0  0  0
    5.9963   -8.0366   16.8240 He  0  0  0  0  0  0  0  0  0  0  0  0
    2.1180   -4.0412   28.2010 He  0  0  0  0  0  0  0  0  0  0  0  0
    2.8173  -11.6832   18.8554 He  0  0  0  0  0  0  0  0  0  0  0  0
   -0.8026   -5.3796   27.0115 He  0  0  0  0  0  0  0  0  0  0  0  0
    0.8327   -3.2717   25.1097 He  0  0  0  0  0  0  0  0  0  0  0  0
    4.1512  -12.5881   15.8801 He  0  0  0  0  0  0  0  0  0  0  0  0
    4.6822   -5.0082   27.4502 He  0  0  0  0  0  0  0  0  0  0  0  0
    1.2683   -5.9527   28.4756 He  0  0  0  0  0  0  0  0  0  0  0  0
    4.1438   -4.5698   28.3566 He  0  0  0  0  0  0  0  0  0  0  0  0
    1.0516  -14.4417   15.1316 He  0  0  0  0  0  0  0  0  0  0  0  0
   -2.3520   -4.7425   27.3637 He  0  0  0  0  0  0  0  0  0  0  0  0
  1  7  4  0
  1  9  4  0
  1 15  4  0
  1 16  2  0
  1 17  3  0
  2 17  1  0
  3  5  1  0
  3  6  3  0
  3  7  4  0
  3 11  1  0
  3 14  1  0
  4  8  4  0
  5 14  1  0
  6 11  2  0
  6 16  1  0
  7  9  3  0
  7 10  4  0
  7 15  4  0
  8  9  2  0
  8 16  4  0
  9 11  4  0
  9 13  4  0
  9 14  3  0
 10 12  2  0
 10 14  1  0
 11 14  3  0
 12 13  3  0
 13 14  2  0
 14 15  2  0
M  END
$$$$

 Created by Python create_sdf_string function

 28 26  0  0  0  0  0  0  0  0999 V2000
    1.7267  -14.3401   16.0184 C   0  0  0  0  0  0  0  0  0  0  0  0
    0.2315   -4.0373   26.7836 C   0  0  0  0  0  0  0  0  0  0  0  0
    6.8366   -8.3302   18.6107 C   0  0  0  0  0  0  0  0  0  0  0  0
    4.3303  -10.6491   17.2713 C   0  0  0  0  0  0  0  0  0  0  0  0
    6.5970   -7.5423   16.8483 C   0  0  0  0  0  0  0  0  0  0  0  0
    1.2589   -4.5419   29.5945 C   0  0  0  0  0  0  0  0  0  0  0  0
    5.5185   -8.4142   16.6685 C   0  0  0  0  0  0  0  0  0  0  0  0
    5.8322   -9.3383   18.6343 N   0  0  0  0  0  0  0  0  0  0  0  0
    2.0721   -4.8849   28.6475 C   0  0  0  0  0  0  0  0  0  0  0  0
    3.5014  -11.0585   17.9888 C   0  0  0  0  0  0  0  0  0  0  0  0
   -1.2341   -2.5926   25.8258 C   0  0  0  0  0  0  0  0  0  0  0  0
    5.2592   -9.5014   17.5019 C   0  0  0  0  0  0  0  0  0  0  0  0
    2.5706  -12.1572   17.8346 C   0  0  0  0  0  0  0  0  0  0  0  0
   -2.2359   -3.4507   26.1320 C   0  0  0  0  0  0  0  0  0  0  0  0
    2.8375  -12.5250   16.8013 C   0  0  0  0  0  0  0  0  0  0  0  0
   -0.7869   -4.9378   27.1491 C   0  0  0  0  0  0  0  0  0  0  0  0
    0.0725   -2.8309   26.1585 C   0  0  0  0  0  0  0  0  0  0  0  0
    3.7043  -12.2105   15.9438 C   0  0  0  0  0  0  0  0  0  0  0  0
    4.3397   -4.9163   27.5848 O   0  0  0  0  0  0  0  0  0  0  0  0
    1.8381   -5.6935   28.1116 C   0  0  0  0  0  0  0  0  0  0  0  0
    3.4921  -12.4340   15.7423 C   0  0  0  0  0  0  0  0  0  0  0  0
    3.7229   -4.5122   28.3054 C   0  0  0  0  0  0  0  0  0  0  0  0
    1.3579  -14.1161   15.7409 C   0  0  0  0  0  0  0  0  0  0  0  0
    6.7971   -7.6951   16.8064 C   0  0  0  0  0  0  0  0  0  0  0  0
   -2.0435   -4.6252   26.7236 C   0  0  0  0  0  0  0  0  0  0  0  0
    3.8034   -3.9405   29.1293 O   0  0  0  0  0  0  0  0  0  0  0  0
    2.6670  -14.1384   15.0441 C   0  0  0  0  0  0  0  0  0  0  0  0
    1.7022   -4.3662   26.7794 C   0  0  0  0  0  0  0  0  0  0  0  0
  1 23  4  0
  1 27  4  0
  2 16  4  0
  2 17  4  0
  2 28  1  0
  3  8  4  0
  4 10  4  0
  4 12  1  0
  4 18  4  0
  5  7  4  0
  5 24  4  0
  6  9  1  0
  7 12  4  0
  8 12  4  0
  9 20  1  0
  9 22  1  0
 10 13  4  0
 11 14  4  0
 11 17  4  0
 13 15  4  0
 14 25  4  0
 15 18  4  0
 16 25  4  0
 18 21  4  0
 19 22  1  0
 22 26  2  0
M  END
$$$$

 Created by Python create_sdf_string function

 28 35  0  0  0  0  0  0  0  0999 V2000
    0.9570   -4.7733   30.0609 P   0  0  0  0  0  0  0  0  0  0  0  0
    3.2971  -11.1048   18.0751 C   0  0  0  0  0  0  0  0  0  0  0  0
   -0.7357   -2.2090   25.6928 C   0  0  0  0  0  0  0  0  0  0  0  0
    4.8164   -9.3475   17.5442 C   0  0  0  0  0  0  0  0  0  0  0  0
    2.7035  -10.5902   18.1863 C   0  0  0  0  0  0  0  0  0  0  0  0
   -3.1607   -2.2720   26.8669 C   0  0  0  0  0  0  0  0  0  0  0  0
    2.8849  -12.1995   17.5426 C   0  0  0  0  0  0  0  0  0  0  0  0
   -0.6911   -4.2734   27.0712 C   0  0  0  0  0  0  0  0  0  0  0  0
    0.6487   -2.5669   25.0897 C   0  0  0  0  0  0  0  0  0  0  0  0
    5.1037   -5.0395   27.7302 O   0  0  0  0  0  0  0  0  0  0  0  0
    2.3403   -5.6248   27.4672 O   0  0  0  0  0  0  0  0  0  0  0  0
    4.0397  -13.0841   15.1003 C   0  0  0  0  0  0  0  0  0  0  0  0
    3.5657   -5.3203   28.2906 C   0  0  0  0  0  0  0  0  0  0  0  0
    1.2800  -14.1866   15.4800 C   0  0  0  0  0  0  0  0  0  0  0  0
    7.1089   -8.5912   17.4536 C   0  0  0  0  0  0  0  0  0  0  0  0
   -2.1115   -5.1240   27.1621 O   0  0  0  0  0  0  0  0  0  0  0  0
    3.4653   -3.1315   28.4391 O   0  0  0  0  0  0  0  0  0  0  0  0
    1.9535   -4.8373   26.1394 C   0  0  0  0  0  0  0  0  0  0  0  0
    1.3734  -14.9998   15.9381 He  0  0  0  0  0  0  0  0  0  0  0  0
    0.0730   -3.6475   26.4609 He  0  0  0  0  0  0  0  0  0  0  0  0
    6.6458   -7.5773   18.7670 He  0  0  0  0  0  0  0  0  0  0  0  0
    4.2403  -11.1611   17.0332 He  0  0  0  0  0  0  0  0  0  0  0  0
    6.6360   -7.0753   16.4344 He  0  0  0  0  0  0  0  0  0  0  0  0
    5.8357   -8.2030   16.9375 He  0  0  0  0  0  0  0  0  0  0  0  0
    5.9528   -9.8442   18.7803 He  0  0  0  0  0  0  0  0  0  0  0  0
    1.4466   -4.3059   28.7055 He  0  0  0  0  0  0  0  0  0  0  0  0
    3.6647  -12.2968   16.0369 He  0  0  0  0  0  0  0  0  0  0  0  0
    3.1968  -13.8756   14.8438 He  0  0  0  0  0  0  0  0  0  0  0  0
  1  6  4  0
  1 10  4  0
  1 11  3  0
  1 12  3  0
  1 14  3  0
  2  3  2  0
  2 17  3  0
  3  5  3  0
  3  6  4  0
  3 14  2  0
  3 15  4  0
  4  7  4  0
  4  9  1  0
  4 11  2  0
  4 12  1  0
  4 17  1  0
  5  7  4  0
  5 11  1  0
  5 13  2  0
  5 15  4  0
  6 16  3  0
  7  8  4  0
  7 12  1  0
  7 15  2  0
  8 15  4  0
  8 16  4  0
  9 10  2  0
  9 16  3  0
  9 17  1  0
 10 18  4  0
 11 18  2  0
 12 14  2  0
 12 16  3  0
 13 17  3  0
 16 18  3  0
M  END
$$$$

 Created by Python create_sdf_string function

 28 27  0  0  0  0  0  0  0  0999 V2000
    1.4452  -14.3581   16.0097 C   0  0  0  0  0  0  0  0  0  0  0  0
    0.1307   -3.8083   26.6807 C   0  0  0  0  0  0  0  0  0  0  0  0
    6.5426   -8.2509   18.6447 C   0  0  0  0  0  0  0  0  0  0  0  0
    4.4869  -10.8607   16.7959 C   0  0  0  0  0  0  0  0  0  0  0  0
    6.2908   -7.7569   16.5279 C   0  0  0  0  0  0  0  0  0  0  0  0
    1.1856   -4.7528   29.3694 N   0  0  0  0  0  0  0  0  0  0  0  0
    5.3862   -8.6649   16.3464 C   0  0  0  0  0  0  0  0  0  0  0  0
    5.6073   -9.3311   18.5378 C   0  0  0  0  0  0  0  0  0  0  0  0
    1.8308   -4.7347   28.5388 C   0  0  0  0  0  0  0  0  0  0  0  0
    3.8136  -10.7272   17.5004 C   0  0  0  0  0  0  0  0  0  0  0  0
   -1.1431   -2.2494   25.9160 C   0  0  0  0  0  0  0  0  0  0  0  0
    5.0505   -9.6462   17.3410 C   0  0  0  0  0  0  0  0  0  0  0  0
    2.7804  -11.2392   17.9910 C   0  0  0  0  0  0  0  0  0  0  0  0
   -2.2268   -2.7998   26.3273 C   0  0  0  0  0  0  0  0  0  0  0  0
    2.2663  -12.3333   17.2505 C   0  0  0  0  0  0  0  0  0  0  0  0
   -1.4786   -4.4902   27.1109 C   0  0  0  0  0  0  0  0  0  0  0  0
    0.0797   -2.7038   26.1060 C   0  0  0  0  0  0  0  0  0  0  0  0
    3.4246  -12.5400   16.0714 C   0  0  0  0  0  0  0  0  0  0  0  0
    4.3934   -5.1179   27.7454 O   0  0  0  0  0  0  0  0  0  0  0  0
    2.0677   -5.4458   27.0087 C   0  0  0  0  0  0  0  0  0  0  0  0
    3.4026  -12.9203   15.5294 C   0  0  0  0  0  0  0  0  0  0  0  0
    3.5195   -4.5603   28.2861 C   0  0  0  0  0  0  0  0  0  0  0  0
    1.8040  -14.2524   15.8261 C   0  0  0  0  0  0  0  0  0  0  0  0
    6.9251   -7.5699   17.6889 C   0  0  0  0  0  0  0  0  0  0  0  0
   -1.6394   -4.5978   27.1496 C   0  0  0  0  0  0  0  0  0  0  0  0
    3.6461   -3.5276   28.7107 O   0  0  0  0  0  0  0  0  0  0  0  0
    3.2299  -13.6308   14.8962 C   0  0  0  0  0  0  0  0  0  0  0  0
    1.3602   -4.6052   26.7580 C   0  0  0  0  0  0  0  0  0  0  0  0
  1 23  4  0
  2 17  4  0
  2 28  1  0
  3  8  4  0
  3 24  4  0
  4 10  4  0
  4 12  1  0
  5  7  4  0
  5 24  4  0
  6  9  1  0
  7 12  4  0
  8 12  4  0
  9 20  1  0
  9 22  1  0
 10 12  1  0
 10 13  4  0
 11 14  4  0
 11 17  4  0
 13 15  4  0
 15 18  4  0
 16 25  4  0
 18 21  4  0
 18 27  4  0
 19 22  2  0
 20 28  1  0
 21 27  4  0
 22 26  2  0
M  END
$$$$

 Created by Python create_sdf_string function

 28 67  0  0  0  0  0  0  0  0999 V2000
    1.5287  -15.1589   15.6914 C   0  0  0  0  0  0  0  0  0  0  0  0
    5.7954   -8.1564   19.0771 C   0  0  0  0  0  0  0  0  0  0  0  0
    4.5085  -11.2230   16.8054 C   0  0  0  0  0  0  0  0  0  0  0  0
    0.8741   -4.2586   28.9951 N   0  0  0  0  0  0  0  0  0  0  0  0
    5.6788   -8.8490   16.7883 C   0  0  0  0  0  0  0  0  0  0  0  0
    4.7554   -9.6249   18.3371 C   0  0  0  0  0  0  0  0  0  0  0  0
    1.1320   -5.0647   29.1325 C   0  0  0  0  0  0  0  0  0  0  0  0
    3.6036  -10.3994   16.2321 C   0  0  0  0  0  0  0  0  0  0  0  0
   -1.0877   -2.7527   26.0780 C   0  0  0  0  0  0  0  0  0  0  0  0
    5.1179  -11.0304   17.7635 Cl  0  0  0  0  0  0  0  0  0  0  0  0
    2.6012  -11.7423   17.4909 C   0  0  0  0  0  0  0  0  0  0  0  0
   -2.5242   -2.9394   26.5261 C   0  0  0  0  0  0  0  0  0  0  0  0
   -1.7850   -5.3504   26.2854 C   0  0  0  0  0  0  0  0  0  0  0  0
    0.7187   -2.3494   26.8148 O   0  0  0  0  0  0  0  0  0  0  0  0
    3.3300  -12.2272   15.4652 C   0  0  0  0  0  0  0  0  0  0  0  0
    3.4709  -12.9334   16.0447 C   0  0  0  0  0  0  0  0  0  0  0  0
    3.0324   -4.5119   28.7578 C   0  0  0  0  0  0  0  0  0  0  0  0
    1.1600  -13.7592   15.5471 C   0  0  0  0  0  0  0  0  0  0  0  0
    6.8977   -7.5538   17.8513 C   0  0  0  0  0  0  0  0  0  0  0  0
   -1.7259   -4.1995   27.1974 C   0  0  0  0  0  0  0  0  0  0  0  0
    3.5279   -3.4779   28.5856 O   0  0  0  0  0  0  0  0  0  0  0  0
    2.9550  -13.9422   14.6712 C   0  0  0  0  0  0  0  0  0  0  0  0
    1.3438   -4.9793   26.2193 C   0  0  0  0  0  0  0  0  0  0  0  0
    1.5868   -3.6236   27.0360 He  0  0  0  0  0  0  0  0  0  0  0  0
    6.1882   -7.9842   17.5298 He  0  0  0  0  0  0  0  0  0  0  0  0
    2.4487  -13.2895   17.8171 He  0  0  0  0  0  0  0  0  0  0  0  0
    4.2059   -5.1464   27.9977 He  0  0  0  0  0  0  0  0  0  0  0  0
    2.1975   -5.0454   26.4863 He  0  0  0  0  0  0  0  0  0  0  0  0
  1  2  4  0
  1  5  1  0
  1 10  2  0
  1 11  1  0
  1 13  1  0
  1 14  2  0
  1 18  1  0
  2  6  3  0
  2 10  4  0
  2 19  4  0
  2 21  4  0
  3  4  1  0
  3  8  1  0
  3 18  4  0
  3 19  3  0
  4  7  1  0
  4  8  4  0
  4 10  1  0
  4 15  4  0
  4 17  2  0
  5  6  3  0
  5  7  1  0
  5 13  4  0
  5 17  3  0
  5 22  2  0
  6  7  2  0
  6  8  3  0
  6 13  2  0
  6 14  4  0
  6 17  3  0
  6 19  4  0
  6 20  3  0
  7  8  3  0
  7 21  2  0
  7 22  2  0
  8  9  1  0
  8 10  1  0
  8 11  1  0
  8 14  3  0
  8 16  1  0
  8 19  2  0
  8 20  2  0
  9 10  4  0
  9 12  4  0
  9 13  1  0
  9 14  1  0
 10 13  2  0
 10 19  3  0
 11 12  3  0
 11 14  2  0
 12 13  3  0
 12 14  1  0
 12 21  4  0
 13 16  3  0
 13 18  2  0
 13 20  3  0
 14 20  3  0
 14 22  3  0
 15 16  4  0
 15 22  2  0
 16 17  3  0
 16 23  4  0
 17 21  2  0
 18 19  3  0
 18 21  4  0
 19 21  2  0
 20 22  2  0
M  END
$$$$

 Created by Python create_sdf_string function

 28 25  0  0  0  0  0  0  0  0999 V2000
    1.2300  -15.0179   15.7675 C   0  0  0  0  0  0  0  0  0  0  0  0
    0.5751   -3.9249   27.1778 C   0  0  0  0  0  0  0  0  0  0  0  0
    6.0701   -8.5730   18.9474 C   0  0  0  0  0  0  0  0  0  0  0  0
    4.1575  -11.2823   16.7279 C   0  0  0  0  0  0  0  0  0  0  0  0
    6.3557   -7.8250   16.8564 C   0  0  0  0  0  0  0  0  0  0  0  0
    1.5739   -4.4978   28.7507 N   0  0  0  0  0  0  0  0  0  0  0  0
    5.5867   -8.8417   16.3187 C   0  0  0  0  0  0  0  0  0  0  0  0
    5.2820   -9.6601   18.4203 C   0  0  0  0  0  0  0  0  0  0  0  0
    1.0914   -5.2217   28.8839 C   0  0  0  0  0  0  0  0  0  0  0  0
    3.9788  -11.1615   16.3379 C   0  0  0  0  0  0  0  0  0  0  0  0
   -0.9912   -2.4399   26.2214 C   0  0  0  0  0  0  0  0  0  0  0  0
    5.0449   -9.8629   17.2858 C   0  0  0  0  0  0  0  0  0  0  0  0
    2.5716  -12.1877   17.5585 C   0  0  0  0  0  0  0  0  0  0  0  0
   -2.0546   -3.1463   26.2668 C   0  0  0  0  0  0  0  0  0  0  0  0
    1.8461  -13.1393   17.2600 C   0  0  0  0  0  0  0  0  0  0  0  0
   -1.6280   -4.6622   26.5343 C   0  0  0  0  0  0  0  0  0  0  0  0
    0.2539   -2.6854   26.7817 C   0  0  0  0  0  0  0  0  0  0  0  0
    3.2019  -12.9537   15.4253 C   0  0  0  0  0  0  0  0  0  0  0  0
    3.9033   -5.2737   28.2726 O   0  0  0  0  0  0  0  0  0  0  0  0
    2.2824   -5.4373   26.6609 C   0  0  0  0  0  0  0  0  0  0  0  0
    3.4704  -12.3322   15.6117 C   0  0  0  0  0  0  0  0  0  0  0  0
    3.0881   -4.3551   28.5695 C   0  0  0  0  0  0  0  0  0  0  0  0
    1.9210  -13.9399   16.1476 C   0  0  0  0  0  0  0  0  0  0  0  0
    6.5700   -7.6892   18.0459 C   0  0  0  0  0  0  0  0  0  0  0  0
   -0.9034   -4.5945   27.3867 C   0  0  0  0  0  0  0  0  0  0  0  0
    3.5454   -3.4703   28.8385 O   0  0  0  0  0  0  0  0  0  0  0  0
    2.8457  -13.9270   14.4721 C   0  0  0  0  0  0  0  0  0  0  0  0
    1.1752   -4.9750   26.5650 C   0  0  0  0  0  0  0  0  0  0  0  0
  1 23  1  0
  2 17  1  0
  2 28  1  0
  3  8  4  0
  3 24  4  0
  4 10  1  0
  4 12  1  0
  5  7  4  0
  5 24  4  0
  6  9  1  0
  6 22  1  0
  7 12  4  0
  8 12  4  0
 10 21  4  0
 11 14  1  0
 11 17  1  0
 13 15  4  0
 14 16  1  0
 15 23  4  0
 16 25  1  0
 18 21  4  0
 18 27  4  0
 19 22  2  0
 20 28  1  0
 22 26  2  0
M  END
$$$$

 Created by Python create_sdf_string function

 28 57  0  0  0  0  0  0  0  0999 V2000
    1.3945  -14.9776   15.1401 C   0  0  0  0  0  0  0  0  0  0  0  0
    0.2423   -3.7900   26.7190 C   0  0  0  0  0  0  0  0  0  0  0  0
    4.1602  -11.2895   15.9445 C   0  0  0  0  0  0  0  0  0  0  0  0
    7.2121   -7.6560   17.2229 F   0  0  0  0  0  0  0  0  0  0  0  0
    5.4549   -8.7153   16.5964 C   0  0  0  0  0  0  0  0  0  0  0  0
    4.6628  -10.3215   17.5266 F   0  0  0  0  0  0  0  0  0  0  0  0
    1.7505   -5.7929   29.1546 C   0  0  0  0  0  0  0  0  0  0  0  0
    3.6669  -10.6439   16.6227 C   0  0  0  0  0  0  0  0  0  0  0  0
   -1.5491   -2.7844   26.9587 C   0  0  0  0  0  0  0  0  0  0  0  0
    5.1191   -9.7761   17.9367 C   0  0  0  0  0  0  0  0  0  0  0  0
    2.2831  -12.6383   16.7097 C   0  0  0  0  0  0  0  0  0  0  0  0
   -1.8483   -2.6814   25.9957 C   0  0  0  0  0  0  0  0  0  0  0  0
   -1.0840   -4.2684   25.0725 C   0  0  0  0  0  0  0  0  0  0  0  0
    0.8425   -3.2772   27.1917 F   0  0  0  0  0  0  0  0  0  0  0  0
    3.7343  -13.1275   14.7938 C   0  0  0  0  0  0  0  0  0  0  0  0
    3.9693   -4.9370   28.2467 B   0  0  0  0  0  0  0  0  0  0  0  0
    2.0216   -5.3820   26.7346 C   0  0  0  0  0  0  0  0  0  0  0  0
    2.8022  -14.7252   15.4855 C   0  0  0  0  0  0  0  0  0  0  0  0
    7.0699   -7.7296   18.3417 F   0  0  0  0  0  0  0  0  0  0  0  0
    3.3992   -2.9927   28.7280 O   0  0  0  0  0  0  0  0  0  0  0  0
    2.6108  -13.8781   14.3711 Cl  0  0  0  0  0  0  0  0  0  0  0  0
    1.6008   -5.2204   26.3517 C   0  0  0  0  0  0  0  0  0  0  0  0
    6.1298   -9.1559   19.0770 He  0  0  0  0  0  0  0  0  0  0  0  0
    1.3246   -5.6126   29.6511 He  0  0  0  0  0  0  0  0  0  0  0  0
    2.5028  -12.8389   16.4019 He  0  0  0  0  0  0  0  0  0  0  0  0
    3.4986  -11.8301   15.4498 He  0  0  0  0  0  0  0  0  0  0  0  0
    2.3638   -3.4704   27.9727 He  0  0  0  0  0  0  0  0  0  0  0  0
   -0.9320   -4.6937   27.8588 He  0  0  0  0  0  0  0  0  0  0  0  0
  1  6  1  0
  1 11  3  0
  1 14  4  0
  1 18  2  0
  2  4  4  0
  2  7  1  0
  2  8  4  0
  2 14  1  0
  2 19  1  0
  2 20  4  0
  2 22  1  0
  3  8  1  0
  3 10  1  0
  3 13  1  0
  3 15  1  0
  3 17  2  0
  4  5  3  0
  4  7  2  0
  4 19  4  0
  4 20  4  0
  5 16  3  0
  5 20  3  0
  6  8  2  0
  6 10  4  0
  6 12  1  0
  6 13  1  0
  6 15  3  0
  6 16  4  0
  6 17  2  0
  6 21  4  0
  6 22  3  0
  7 10  3  0
  7 11  1  0
  7 14  3  0
  7 20  2  0
  8 13  4  0
  8 14  1  0
  8 15  3  0
  9 11  4  0
  9 12  1  0
  9 15  4  0
  9 16  4  0
 10 16  2  0
 11 14  4  0
 11 15  1  0
 12 13  1  0
 12 16  4  0
 13 16  2  0
 14 19  4  0
 14 22  2  0
 15 18  3  0
 15 19  4  0
 17 22  1  0
 18 20  3  0
 19 21  1  0
 19 22  3  0
 20 22  2  0
M  END
$$$$

 Created by Python create_sdf_string function

 28 28  0  0  0  0  0  0  0  0999 V2000
    1.5643  -15.2659   15.3646 C   0  0  0  0  0  0  0  0  0  0  0  0
    0.5993   -4.2092   27.1929 C   0  0  0  0  0  0  0  0  0  0  0  0
    6.0446   -8.7999   18.9884 C   0  0  0  0  0  0  0  0  0  0  0  0
    4.2707  -10.9096   16.1024 C   0  0  0  0  0  0  0  0  0  0  0  0
    6.6538   -7.7854   16.9342 C   0  0  0  0  0  0  0  0  0  0  0  0
    1.5307   -5.3860   29.3227 O   0  0  0  0  0  0  0  0  0  0  0  0
    5.7757   -8.6199   16.3184 C   0  0  0  0  0  0  0  0  0  0  0  0
    5.1132   -9.7195   18.1237 C   0  0  0  0  0  0  0  0  0  0  0  0
    1.8200   -5.6287   28.6350 C   0  0  0  0  0  0  0  0  0  0  0  0
    3.7017  -10.9602   16.5974 C   0  0  0  0  0  0  0  0  0  0  0  0
   -1.2252   -2.6380   26.9808 C   0  0  0  0  0  0  0  0  0  0  0  0
    5.1355   -9.5171   17.0742 C   0  0  0  0  0  0  0  0  0  0  0  0
    2.6373  -12.4929   16.8106 C   0  0  0  0  0  0  0  0  0  0  0  0
   -1.6411   -2.9513   25.9600 C   0  0  0  0  0  0  0  0  0  0  0  0
    2.2411  -13.4314   16.5272 C   0  0  0  0  0  0  0  0  0  0  0  0
   -1.4303   -4.2498   25.7757 C   0  0  0  0  0  0  0  0  0  0  0  0
    0.4846   -3.1376   27.2548 N   0  0  0  0  0  0  0  0  0  0  0  0
    3.4923  -12.9646   14.6198 C   0  0  0  0  0  0  0  0  0  0  0  0
    3.8690   -4.7908   28.3923 O   0  0  0  0  0  0  0  0  0  0  0  0
    2.2292   -5.7896   26.9366 C   0  0  0  0  0  0  0  0  0  0  0  0
    3.7378  -12.2007   15.3287 C   0  0  0  0  0  0  0  0  0  0  0  0
    2.7582   -3.9018   28.3310 C   0  0  0  0  0  0  0  0  0  0  0  0
    2.1330  -14.3161   15.4467 C   0  0  0  0  0  0  0  0  0  0  0  0
    6.7998   -7.9442   18.2447 C   0  0  0  0  0  0  0  0  0  0  0  0
   -0.7489   -4.8261   27.5348 C   0  0  0  0  0  0  0  0  0  0  0  0
    3.0140   -2.8863   28.5928 O   0  0  0  0  0  0  0  0  0  0  0  0
    2.9442  -14.0852   14.1728 C   0  0  0  0  0  0  0  0  0  0  0  0
    1.4778   -5.0382   26.4947 C   0  0  0  0  0  0  0  0  0  0  0  0
  1 23  1  0
  2 17  1  0
  2 25  1  0
  2 28  1  0
  3  8  4  0
  3 24  4  0
  4 10  1  0
  4 12  1  0
  4 21  4  0
  5  7  4  0
  5 24  4  0
  6  9  1  0
  7 12  4  0
  8 12  4  0
  9 20  1  0
 10 13  4  0
 11 14  1  0
 11 17  1  0
 13 15  4  0
 14 16  1  0
 15 23  4  0
 16 25  1  0
 18 21  4  0
 18 27  4  0
 19 22  2  0
 20 28  1  0
 22 26  1  0
 23 27  4  0
M  END
$$$$

 Created by Python create_sdf_string function

 28 69  0  0  0  0  0  0  0  0999 V2000
    0.6583  -15.1557   15.7727 O   0  0  0  0  0  0  0  0  0  0  0  0
    0.8111   -4.2388   26.8152 I   0  0  0  0  0  0  0  0  0  0  0  0
    6.5823   -9.0984   18.0820 O   0  0  0  0  0  0  0  0  0  0  0  0
    4.0102  -11.1070   15.5137 Se  0  0  0  0  0  0  0  0  0  0  0  0
    6.8297   -7.6280   17.6112 C   0  0  0  0  0  0  0  0  0  0  0  0
    1.9767   -5.7248   30.1217 O   0  0  0  0  0  0  0  0  0  0  0  0
    5.7736   -8.7350   16.5293 C   0  0  0  0  0  0  0  0  0  0  0  0
    5.4852   -9.8650   17.9864 C   0  0  0  0  0  0  0  0  0  0  0  0
    1.4363   -5.2212   28.4205 C   0  0  0  0  0  0  0  0  0  0  0  0
    2.8213  -11.3340   16.4676 C   0  0  0  0  0  0  0  0  0  0  0  0
   -1.1256   -2.1520   26.6062 C   0  0  0  0  0  0  0  0  0  0  0  0
    5.5298  -10.6252   17.2172 C   0  0  0  0  0  0  0  0  0  0  0  0
    1.9350  -12.0055   16.7165 C   0  0  0  0  0  0  0  0  0  0  0  0
   -2.0709   -3.0290   26.2213 C   0  0  0  0  0  0  0  0  0  0  0  0
    2.0995  -14.0311   16.6638 C   0  0  0  0  0  0  0  0  0  0  0  0
   -0.8103   -3.8937   25.9864 C   0  0  0  0  0  0  0  0  0  0  0  0
    3.9919   -4.9664   28.4767 O   0  0  0  0  0  0  0  0  0  0  0  0
    2.0556   -5.8474   26.8246 C   0  0  0  0  0  0  0  0  0  0  0  0
    2.0728   -4.8749   28.5136 C   0  0  0  0  0  0  0  0  0  0  0  0
    2.5926  -13.6435   15.3461 C   0  0  0  0  0  0  0  0  0  0  0  0
    6.5900   -7.6197   19.1565 C   0  0  0  0  0  0  0  0  0  0  0  0
   -0.5831   -4.9625   27.0196 N   0  0  0  0  0  0  0  0  0  0  0  0
    2.4851   -3.3902   28.6878 N   0  0  0  0  0  0  0  0  0  0  0  0
    3.1824  -14.2509   13.9134 C   0  0  0  0  0  0  0  0  0  0  0  0
    0.2536   -2.7599   27.1307 He  0  0  0  0  0  0  0  0  0  0  0  0
    4.1710  -12.6132   14.0719 He  0  0  0  0  0  0  0  0  0  0  0  0
    3.2722  -12.6682   15.2071 He  0  0  0  0  0  0  0  0  0  0  0  0
    1.3762   -4.6613   26.3245 He  0  0  0  0  0  0  0  0  0  0  0  0
  1  2  1  0
  1  3  4  0
  1  8  4  0
  1 16  2  0
  1 20  3  0
  1 21  1  0
  1 22  4  0
  2  4  4  0
  2  7  3  0
  2 13  2  0
  3  4  4  0
  3 14  3  0
  3 18  2  0
  3 19  2  0
  3 21  4  0
  3 22  4  0
  3 24  2  0
  4  6  4  0
  4  8  4  0
  4 12  1  0
  4 14  4  0
  4 16  2  0
  4 18  4  0
  5  8  4  0
  5 13  2  0
  5 14  2  0
  5 18  3  0
  5 21  4  0
  5 24  1  0
  6  7  1  0
  6  9  1  0
  6 10  1  0
  6 11  1  0
  6 20  1  0
  6 24  4  0
  7 12  4  0
  7 16  4  0
  7 18  2  0
  7 20  2  0
  7 23  3  0
  8 10  2  0
  8 16  1  0
  8 20  3  0
  9 18  1  0
  9 20  2  0
  9 22  1  0
 10 23  4  0
 11 15  3  0
 11 19  1  0
 11 23  3  0
 13 23  2  0
 13 24  2  0
 14 16  1  0
 14 18  2  0
 15 16  4  0
 15 20  4  0
 15 22  3  0
 15 23  4  0
 16 20  2  0
 16 22  1  0
 17 19  3  0
 17 23  4  0
 18 21  4  0
 18 22  1  0
 19 23  1  0
 20 21  3  0
 20 22  4  0
 20 24  4  0
 22 23  3  0
M  END
$$$$

 Created by Python create_sdf_string function

 28 29  0  0  0  0  0  0  0  0999 V2000
    1.2212  -14.9468   15.6833 O   0  0  0  0  0  0  0  0  0  0  0  0
    0.5961   -3.9056   26.9536 C   0  0  0  0  0  0  0  0  0  0  0  0
    5.8248   -9.1220   18.6759 C   0  0  0  0  0  0  0  0  0  0  0  0
    4.2947  -10.9575   16.0460 C   0  0  0  0  0  0  0  0  0  0  0  0
    6.4305   -8.1532   16.8734 C   0  0  0  0  0  0  0  0  0  0  0  0
    1.8645   -5.8264   29.8634 O   0  0  0  0  0  0  0  0  0  0  0  0
    5.7723   -9.0260   16.1203 C   0  0  0  0  0  0  0  0  0  0  0  0
    4.9727  -10.1099   17.9456 C   0  0  0  0  0  0  0  0  0  0  0  0
    1.3093   -5.7749   28.6955 C   0  0  0  0  0  0  0  0  0  0  0  0
    3.3128  -11.5720   16.5195 C   0  0  0  0  0  0  0  0  0  0  0  0
   -0.9685   -2.1028   26.6272 C   0  0  0  0  0  0  0  0  0  0  0  0
    5.0700  -10.0437   16.7638 C   0  0  0  0  0  0  0  0  0  0  0  0
    2.2923  -12.3470   16.7830 C   0  0  0  0  0  0  0  0  0  0  0  0
   -1.8489   -3.0690   26.2617 C   0  0  0  0  0  0  0  0  0  0  0  0
    2.0070  -13.4482   16.0997 C   0  0  0  0  0  0  0  0  0  0  0  0
   -1.5206   -4.2919   26.1413 C   0  0  0  0  0  0  0  0  0  0  0  0
    0.2913   -2.5583   27.0276 C   0  0  0  0  0  0  0  0  0  0  0  0
    4.0480  -12.6406   14.3112 C   0  0  0  0  0  0  0  0  0  0  0  0
    3.8797   -4.8981   28.4817 O   0  0  0  0  0  0  0  0  0  0  0  0
    1.9461   -5.7181   27.3895 C   0  0  0  0  0  0  0  0  0  0  0  0
    4.0477  -12.0254   15.2661 C   0  0  0  0  0  0  0  0  0  0  0  0
    2.7195   -4.5979   28.4918 C   0  0  0  0  0  0  0  0  0  0  0  0
    2.2229  -14.0199   15.3806 C   0  0  0  0  0  0  0  0  0  0  0  0
    6.4562   -8.1274   18.1361 C   0  0  0  0  0  0  0  0  0  0  0  0
   -0.5297   -4.7894   26.8350 C   0  0  0  0  0  0  0  0  0  0  0  0
    2.5799   -3.4182   28.7052 O   0  0  0  0  0  0  0  0  0  0  0  0
    3.0504  -14.0094   14.3488 C   0  0  0  0  0  0  0  0  0  0  0  0
    1.7151   -4.6389   26.5824 C   0  0  0  0  0  0  0  0  0  0  0  0
  1 23  1  0
  2 17  1  0
  2 25  1  0
  2 28  1  0
  3  8  4  0
  3 24  4  0
  4 10  4  0
  4 12  1  0
  4 21  4  0
  5  7  4  0
  5 24  4  0
  6  9  1  0
  7 12  4  0
  8 12  4  0
  9 20  1  0
 10 13  4  0
 10 21  4  0
 11 14  1  0
 11 17  1  0
 13 15  4  0
 14 16  1  0
 15 23  4  0
 16 25  1  0
 18 21  4  0
 18 27  4  0
 19 22  2  0
 20 28  1  0
 22 26  1  0
 23 27  4  0
M  END
$$$$

 Created by Python create_sdf_string function

 28 85  0  0  0  0  0  0  0  0999 V2000
    1.0081   -4.0431   26.7644 O   0  0  0  0  0  0  0  0  0  0  0  0
    6.5594   -9.2811   18.8387 C   0  0  0  0  0  0  0  0  0  0  0  0
    4.5108  -11.4573   16.2780 C   0  0  0  0  0  0  0  0  0  0  0  0
    1.9639   -5.7476   30.3822 O   0  0  0  0  0  0  0  0  0  0  0  0
    6.2854   -8.8750   16.7461 C   0  0  0  0  0  0  0  0  0  0  0  0
    5.3326  -10.3734   18.5851 C   0  0  0  0  0  0  0  0  0  0  0  0
    1.0269   -6.2633   29.1752 C   0  0  0  0  0  0  0  0  0  0  0  0
    3.0441  -11.4726   17.1927 C   0  0  0  0  0  0  0  0  0  0  0  0
   -0.5299   -2.0482   26.9034 C   0  0  0  0  0  0  0  0  0  0  0  0
    4.7946  -10.2805   16.1322 C   0  0  0  0  0  0  0  0  0  0  0  0
    2.1813  -11.6625   16.5955 C   0  0  0  0  0  0  0  0  0  0  0  0
   -2.2666   -3.1831   26.6553 C   0  0  0  0  0  0  0  0  0  0  0  0
    1.6958  -13.4125   16.2493 C   0  0  0  0  0  0  0  0  0  0  0  0
   -1.8486   -3.9247   26.2905 C   0  0  0  0  0  0  0  0  0  0  0  0
    0.4172   -2.0631   27.2009 F   0  0  0  0  0  0  0  0  0  0  0  0
    3.6109  -13.2945   13.9029 C   0  0  0  0  0  0  0  0  0  0  0  0
    3.9104   -4.6213   28.6122 O   0  0  0  0  0  0  0  0  0  0  0  0
    1.8576   -4.8537   27.0370 C   0  0  0  0  0  0  0  0  0  0  0  0
    4.1747  -12.3043   15.6767 F   0  0  0  0  0  0  0  0  0  0  0  0
    2.4568   -4.1248   28.6345 Cl  0  0  0  0  0  0  0  0  0  0  0  0
    2.1608  -13.6627   15.2946 C   0  0  0  0  0  0  0  0  0  0  0  0
    6.6099   -8.1951   18.7004 C   0  0  0  0  0  0  0  0  0  0  0  0
   -1.1409   -4.8275   26.7162 C   0  0  0  0  0  0  0  0  0  0  0  0
    2.8372   -2.7678   28.5470 O   0  0  0  0  0  0  0  0  0  0  0  0
    2.5437  -14.4370   14.6805 C   0  0  0  0  0  0  0  0  0  0  0  0
    1.4199   -4.7424   26.3139 C   0  0  0  0  0  0  0  0  0  0  0  0
    1.2554  -15.4226   15.5392 He  0  0  0  0  0  0  0  0  0  0  0  0
    6.4785   -8.3109   17.1623 He  0  0  0  0  0  0  0  0  0  0  0  0
  1  6  4  0
  1  8  1  0
  1 12  4  0
  1 13  2  0
  1 15  1  0
  1 20  3  0
  1 22  3  0
  1 23  1  0
  1 25  2  0
  1 26  1  0
  2 17  3  0
  2 22  1  0
  2 24  4  0
  3  6  4  0
  3  7  3  0
  3  8  4  0
  3  9  1  0
  3 13  3  0
  3 19  4  0
  3 20  4  0
  3 22  4  0
  3 23  3  0
  3 25  2  0
  4  5  4  0
  4  6  3  0
  4  7  4  0
  4 10  1  0
  4 15  3  0
  4 18  3  0
  4 20  3  0
  5 10  4  0
  5 18  4  0
  5 22  1  0
  5 25  2  0
  6 10  3  0
  6 15  3  0
  6 26  4  0
  7 11  2  0
  7 17  4  0
  7 18  1  0
  7 26  1  0
  8  9  2  0
  8 10  2  0
  8 12  3  0
  8 13  4  0
  8 15  1  0
  8 17  4  0
  8 23  3  0
  8 24  4  0
  9 10  2  0
  9 11  4  0
  9 12  1  0
  9 15  1  0
  9 16  2  0
  9 20  1  0
  9 23  3  0
  9 25  1  0
 10 11  2  0
 10 16  2  0
 10 19  3  0
 11 13  4  0
 11 18  3  0
 12 13  1  0
 12 15  2  0
 12 20  3  0
 12 24  4  0
 13 21  4  0
 14 17  3  0
 14 18  3  0
 14 23  1  0
 14 25  3  0
 15 19  3  0
 15 21  4  0
 15 24  2  0
 16 19  4  0
 16 22  2  0
 16 25  4  0
 17 20  2  0
 17 21  1  0
 18 26  2  0
 19 21  4  0
 20 23  1  0
 20 24  1  0
 20 25  3  0
 24 25  2  0
M  END
$$$$

 Created by Python create_sdf_string function

 28 29  0  0  0  0  0  0  0  0999 V2000
    1.0664  -15.0505   15.5099 O   0  0  0  0  0  0  0  0  0  0  0  0
    0.4291   -4.0212   26.9035 N   0  0  0  0  0  0  0  0  0  0  0  0
    5.8453   -8.9754   18.7943 C   0  0  0  0  0  0  0  0  0  0  0  0
    4.2557  -11.1402   16.2287 C   0  0  0  0  0  0  0  0  0  0  0  0
    6.4417   -8.3880   16.7603 C   0  0  0  0  0  0  0  0  0  0  0  0
    2.0861   -5.3251   30.0851 O   0  0  0  0  0  0  0  0  0  0  0  0
    5.8209   -9.4294   16.1527 C   0  0  0  0  0  0  0  0  0  0  0  0
    5.0134  -10.0477   18.2438 C   0  0  0  0  0  0  0  0  0  0  0  0
    1.1818   -6.0774   28.5219 C   0  0  0  0  0  0  0  0  0  0  0  0
    2.9839  -11.6474   16.7882 C   0  0  0  0  0  0  0  0  0  0  0  0
   -0.9705   -1.9862   26.8342 C   0  0  0  0  0  0  0  0  0  0  0  0
    5.0228  -10.2066   16.9048 C   0  0  0  0  0  0  0  0  0  0  0  0
    2.2327  -12.1855   16.8264 C   0  0  0  0  0  0  0  0  0  0  0  0
   -2.0606   -2.7670   26.5669 C   0  0  0  0  0  0  0  0  0  0  0  0
    1.9257  -13.1344   16.2674 C   0  0  0  0  0  0  0  0  0  0  0  0
   -1.9378   -4.1042   26.2994 C   0  0  0  0  0  0  0  0  0  0  0  0
    0.2922   -2.6129   26.9319 C   0  0  0  0  0  0  0  0  0  0  0  0
    3.7209  -13.1692   14.4663 C   0  0  0  0  0  0  0  0  0  0  0  0
    4.0336   -4.6346   28.7848 O   0  0  0  0  0  0  0  0  0  0  0  0
    1.9782   -5.4478   27.6302 C   0  0  0  0  0  0  0  0  0  0  0  0
    4.2337  -12.1270   15.2358 C   0  0  0  0  0  0  0  0  0  0  0  0
    2.9194   -4.3570   28.8303 P   0  0  0  0  0  0  0  0  0  0  0  0
    1.9985  -13.9724   15.4695 C   0  0  0  0  0  0  0  0  0  0  0  0
    6.4968   -8.1424   18.1850 C   0  0  0  0  0  0  0  0  0  0  0  0
   -0.7151   -4.7803   26.7249 C   0  0  0  0  0  0  0  0  0  0  0  0
    2.7316   -3.0188   28.8276 O   0  0  0  0  0  0  0  0  0  0  0  0
    2.9174  -14.1670   14.4256 C   0  0  0  0  0  0  0  0  0  0  0  0
    1.6230   -4.5899   26.7882 C   0  0  0  0  0  0  0  0  0  0  0  0
  1 23  1  0
  2 17  1  0
  2 25  1  0
  2 28  1  0
  3  8  4  0
  3 24  4  0
  4 10  4  0
  4 12  1  0
  4 21  4  0
  5  7  4  0
  5 24  4  0
  6 22  1  0
  7 12  4  0
  8 12  4  0
  9 20  1  0
 10 13  4  0
 11 14  1  0
 11 17  1  0
 13 15  4  0
 14 16  1  0
 15 23  4  0
 16 25  1  0
 18 21  4  0
 18 27  4  0
 19 22  2  0
 20 22  1  0
 20 28  1  0
 22 26  1  0
 23 27  4  0
M  END
$$$$

 Created by Python create_sdf_string function

 28 46  0  0  0  0  0  0  0  0999 V2000
    0.6007  -15.0574   15.7825 C   0  0  0  0  0  0  0  0  0  0  0  0
   -0.5763   -4.2536   27.1578 N   0  0  0  0  0  0  0  0  0  0  0  0
    3.9897  -10.9220   16.5438 F   0  0  0  0  0  0  0  0  0  0  0  0
    6.8443   -8.2817   16.4299 C   0  0  0  0  0  0  0  0  0  0  0  0
    2.5254   -5.5131   30.9276 O   0  0  0  0  0  0  0  0  0  0  0  0
    6.3498   -8.8719   16.7418 C   0  0  0  0  0  0  0  0  0  0  0  0
    4.3172   -9.9815   18.2176 C   0  0  0  0  0  0  0  0  0  0  0  0
    1.2070   -5.0783   28.2753 C   0  0  0  0  0  0  0  0  0  0  0  0
    3.1872  -11.6727   16.5507 C   0  0  0  0  0  0  0  0  0  0  0  0
   -1.6317   -1.5461   27.0471 N   0  0  0  0  0  0  0  0  0  0  0  0
    2.1560  -12.3203   16.9721 C   0  0  0  0  0  0  0  0  0  0  0  0
   -2.4647   -2.6658   26.6977 C   0  0  0  0  0  0  0  0  0  0  0  0
    1.8729  -13.1261   15.9491 F   0  0  0  0  0  0  0  0  0  0  0  0
   -2.3557   -4.7084   26.9205 C   0  0  0  0  0  0  0  0  0  0  0  0
    0.5268   -3.1054   27.4964 C   0  0  0  0  0  0  0  0  0  0  0  0
    4.8881  -12.7896   14.3870 C   0  0  0  0  0  0  0  0  0  0  0  0
    3.6312   -4.1947   28.6798 O   0  0  0  0  0  0  0  0  0  0  0  0
    4.6305  -11.8480   15.8978 C   0  0  0  0  0  0  0  0  0  0  0  0
    2.1777   -4.8271   28.2173 P   0  0  0  0  0  0  0  0  0  0  0  0
    1.9700  -13.8034   15.3004 C   0  0  0  0  0  0  0  0  0  0  0  0
    6.3942   -7.9738   17.9846 C   0  0  0  0  0  0  0  0  0  0  0  0
    3.3859   -2.8453   28.5680 O   0  0  0  0  0  0  0  0  0  0  0  0
    3.0641  -14.4913   14.0054 C   0  0  0  0  0  0  0  0  0  0  0  0
    1.7271   -4.3496   26.9689 S   0  0  0  0  0  0  0  0  0  0  0  0
    6.4265   -9.5036   19.1900 He  0  0  0  0  0  0  0  0  0  0  0  0
    4.5705   -9.8280   16.4172 He  0  0  0  0  0  0  0  0  0  0  0  0
    1.6923   -5.4429   28.2703 He  0  0  0  0  0  0  0  0  0  0  0  0
   -0.0353   -5.0914   26.2153 He  0  0  0  0  0  0  0  0  0  0  0  0
  1 19  4  0
  2  5  2  0
  2 15  1  0
  3  9  4  0
  3 11  3  0
  3 12  3  0
  3 18  4  0
  3 19  2  0
  3 23  3  0
  4 12  1  0
  4 21  4  0
  4 22  1  0
  5 14  2  0
  5 15  1  0
  5 19  1  0
  6 10  2  0
  6 23  3  0
  7 13  2  0
  7 24  4  0
  9 11  4  0
  9 12  3  0
  9 19  2  0
 10 11  2  0
 10 12  4  0
 10 15  1  0
 11 13  4  0
 11 24  1  0
 12 14  1  0
 12 21  2  0
 13 18  2  0
 13 20  4  0
 13 24  2  0
 15 16  2  0
 15 18  2  0
 15 19  3  0
 15 20  4  0
 16 18  4  0
 16 20  2  0
 16 23  4  0
 17 19  2  0
 17 21  3  0
 18 19  3  0
 18 23  2  0
 19 22  1  0
 20 23  4  0
 20 24  4  0
M  END
$$$$

 Created by Python create_sdf_string function

 28 28  0  0  0  0  0  0  0  0999 V2000
    0.9678  -14.8546   15.3758 C   0  0  0  0  0  0  0  0  0  0  0  0
   -0.2618   -4.0121   26.8627 N   0  0  0  0  0  0  0  0  0  0  0  0
    5.8264   -8.7434   18.8179 C   0  0  0  0  0  0  0  0  0  0  0  0
    4.2175  -11.0139   16.3544 C   0  0  0  0  0  0  0  0  0  0  0  0
    6.6453   -8.3553   16.6831 C   0  0  0  0  0  0  0  0  0  0  0  0
    2.6154   -5.0881   30.4241 O   0  0  0  0  0  0  0  0  0  0  0  0
    5.8094   -9.3393   16.1368 C   0  0  0  0  0  0  0  0  0  0  0  0
    4.9219   -9.8332   18.2613 C   0  0  0  0  0  0  0  0  0  0  0  0
    0.9671   -5.5063   27.9279 C   0  0  0  0  0  0  0  0  0  0  0  0
    2.9895  -11.3041   16.9137 C   0  0  0  0  0  0  0  0  0  0  0  0
   -1.4024   -2.0416   27.0531 C   0  0  0  0  0  0  0  0  0  0  0  0
    4.9902  -10.0435   16.9538 C   0  0  0  0  0  0  0  0  0  0  0  0
    2.2773  -12.3805   16.5235 C   0  0  0  0  0  0  0  0  0  0  0  0
   -2.4045   -2.9858   26.7100 C   0  0  0  0  0  0  0  0  0  0  0  0
    2.2057  -13.1649   15.8815 C   0  0  0  0  0  0  0  0  0  0  0  0
   -2.2488   -4.4067   26.6580 C   0  0  0  0  0  0  0  0  0  0  0  0
   -0.0964   -2.7506   27.2910 C   0  0  0  0  0  0  0  0  0  0  0  0
    4.0033  -12.8997   14.5275 C   0  0  0  0  0  0  0  0  0  0  0  0
    4.3218   -4.8926   28.7149 O   0  0  0  0  0  0  0  0  0  0  0  0
    1.8590   -5.0945   28.0648 C   0  0  0  0  0  0  0  0  0  0  0  0
    4.4488  -11.8127   15.3296 C   0  0  0  0  0  0  0  0  0  0  0  0
    3.0729   -4.4967   29.1100 P   0  0  0  0  0  0  0  0  0  0  0  0
    2.0710  -14.1712   15.1173 C   0  0  0  0  0  0  0  0  0  0  0  0
    6.6535   -8.0736   18.0051 C   0  0  0  0  0  0  0  0  0  0  0  0
   -0.6264   -5.0512   26.7769 C   0  0  0  0  0  0  0  0  0  0  0  0
    2.9419   -2.8971   29.0492 O   0  0  0  0  0  0  0  0  0  0  0  0
    3.0873  -14.1806   14.2117 C   0  0  0  0  0  0  0  0  0  0  0  0
    1.7212   -4.5097   26.8376 C   0  0  0  0  0  0  0  0  0  0  0  0
  1 23  1  0
  2 17  1  0
  2 25  1  0
  3  8  4  0
  3 24  4  0
  4 10  4  0
  4 12  1  0
  4 21  4  0
  5  7  4  0
  5 24  4  0
  6 22  1  0
  7 12  4  0
  8 12  4  0
  9 20  1  0
 10 13  4  0
 11 14  1  0
 11 17  1  0
 13 15  4  0
 14 16  1  0
 15 23  4  0
 16 25  1  0
 18 21  4  0
 18 27  4  0
 19 22  2  0
 20 22  1  0
 20 28  1  0
 22 26  1  0
 23 27  4  0
M  END
$$$$

 Created by Python create_sdf_string function

 28 57  0  0  0  0  0  0  0  0999 V2000
    1.3494  -14.9385   16.1793 C   0  0  0  0  0  0  0  0  0  0  0  0
   -0.1349   -4.2045   26.8754 N   0  0  0  0  0  0  0  0  0  0  0  0
    5.5139   -9.5342   19.2549 F   0  0  0  0  0  0  0  0  0  0  0  0
    6.7975   -8.4394   17.1467 C   0  0  0  0  0  0  0  0  0  0  0  0
    3.0364   -4.7655   29.5637 C   0  0  0  0  0  0  0  0  0  0  0  0
    6.0792   -9.3360   15.6490 C   0  0  0  0  0  0  0  0  0  0  0  0
    1.2721   -5.3488   27.7553 C   0  0  0  0  0  0  0  0  0  0  0  0
    2.4748  -11.5406   17.0572 C   0  0  0  0  0  0  0  0  0  0  0  0
   -1.7911   -1.9320   27.6318 F   0  0  0  0  0  0  0  0  0  0  0  0
    4.8899   -9.9475   17.1037 C   0  0  0  0  0  0  0  0  0  0  0  0
   -1.9476   -3.4205   26.5261 N   0  0  0  0  0  0  0  0  0  0  0  0
    2.1959  -12.9484   16.1318 C   0  0  0  0  0  0  0  0  0  0  0  0
   -1.7741   -4.2598   27.3627 C   0  0  0  0  0  0  0  0  0  0  0  0
   -0.3876   -2.1934   27.7866 O   0  0  0  0  0  0  0  0  0  0  0  0
    4.5463  -12.7170   14.7125 C   0  0  0  0  0  0  0  0  0  0  0  0
    4.8699   -4.8650   28.8959 O   0  0  0  0  0  0  0  0  0  0  0  0
    1.5690   -5.0935   27.6474 C   0  0  0  0  0  0  0  0  0  0  0  0
    4.4434  -10.8576   14.5636 C   0  0  0  0  0  0  0  0  0  0  0  0
    2.9558   -4.7526   29.2092 P   0  0  0  0  0  0  0  0  0  0  0  0
    6.3749   -7.9288   17.5696 C   0  0  0  0  0  0  0  0  0  0  0  0
   -0.5878   -5.8130   26.4141 Se  0  0  0  0  0  0  0  0  0  0  0  0
    2.3286   -2.9331   28.9442 O   0  0  0  0  0  0  0  0  0  0  0  0
    1.3439   -4.7788   26.7284 N   0  0  0  0  0  0  0  0  0  0  0  0
    4.2813  -11.1080   15.7172 He  0  0  0  0  0  0  0  0  0  0  0  0
    4.7471   -9.5748   18.4753 He  0  0  0  0  0  0  0  0  0  0  0  0
    2.9610  -12.0763   16.4677 He  0  0  0  0  0  0  0  0  0  0  0  0
    2.2110  -13.5821   15.3117 He  0  0  0  0  0  0  0  0  0  0  0  0
    3.1189  -13.7067   13.6203 He  0  0  0  0  0  0  0  0  0  0  0  0
  1 14  4  0
  1 16  2  0
  1 20  1  0
  2  9  1  0
  2 10  1  0
  2 14  1  0
  2 19  1  0
  2 21  1  0
  3  6  1  0
  3  7  3  0
  3  8  1  0
  3  9  1  0
  3 12  4  0
  3 17  1  0
  3 18  3  0
  3 23  1  0
  4  5  1  0
  4  6  4  0
  4  9  2  0
  4 13  2  0
  4 16  1  0
  4 20  4  0
  5  6  2  0
  5 12  1  0
  5 17  2  0
  5 18  4  0
  6 10  3  0
  6 18  2  0
  6 19  2  0
  7 17  1  0
  7 19  2  0
  8  9  1  0
  8 13  2  0
  8 17  2  0
  8 20  4  0
  8 22  4  0
  9 11  1  0
  9 14  1  0
  9 16  4  0
 10 12  3  0
 10 18  3  0
 11 12  3  0
 11 13  1  0
 11 23  3  0
 12 19  1  0
 12 21  2  0
 13 21  1  0
 15 16  2  0
 15 18  4  0
 16 19  2  0
 16 20  1  0
 16 22  1  0
 16 23  4  0
 17 18  3  0
 19 22  1  0
 20 23  1  0
 21 23  4  0
M  END
$$$$

 Created by Python create_sdf_string function

 28 28  0  0  0  0  0  0  0  0999 V2000
    1.3442  -14.8404   15.6629 C   0  0  0  0  0  0  0  0  0  0  0  0
    0.1698   -3.9280   27.1191 N   0  0  0  0  0  0  0  0  0  0  0  0
    5.7038   -8.7774   18.6964 C   0  0  0  0  0  0  0  0  0  0  0  0
    4.1547  -10.9546   16.1906 C   0  0  0  0  0  0  0  0  0  0  0  0
    6.7380   -8.3619   16.7702 C   0  0  0  0  0  0  0  0  0  0  0  0
    2.7854   -5.1324   30.0589 O   0  0  0  0  0  0  0  0  0  0  0  0
    5.9526   -9.3404   16.0447 C   0  0  0  0  0  0  0  0  0  0  0  0
    4.8398   -9.8419   18.1155 C   0  0  0  0  0  0  0  0  0  0  0  0
    1.3923   -5.3511   27.9286 C   0  0  0  0  0  0  0  0  0  0  0  0
    3.0557  -11.2400   16.8453 C   0  0  0  0  0  0  0  0  0  0  0  0
   -1.6993   -2.2794   27.3493 C   0  0  0  0  0  0  0  0  0  0  0  0
    4.9942  -10.0604   16.7859 C   0  0  0  0  0  0  0  0  0  0  0  0
    2.4549  -12.3275   16.5238 C   0  0  0  0  0  0  0  0  0  0  0  0
   -2.3851   -3.2857   26.8098 N   0  0  0  0  0  0  0  0  0  0  0  0
    2.3977  -13.1918   15.8605 C   0  0  0  0  0  0  0  0  0  0  0  0
   -1.9684   -4.5295   26.8421 C   0  0  0  0  0  0  0  0  0  0  0  0
   -0.2746   -2.6507   27.5737 C   0  0  0  0  0  0  0  0  0  0  0  0
    3.7275  -12.7171   14.4260 C   0  0  0  0  0  0  0  0  0  0  0  0
    4.5008   -4.5870   28.5659 O   0  0  0  0  0  0  0  0  0  0  0  0
    2.0437   -5.2688   27.5234 C   0  0  0  0  0  0  0  0  0  0  0  0
    4.4057  -11.5373   15.0533 C   0  0  0  0  0  0  0  0  0  0  0  0
    3.1891   -4.3968   28.9674 P   0  0  0  0  0  0  0  0  0  0  0  0
    2.2417  -14.0556   15.2349 C   0  0  0  0  0  0  0  0  0  0  0  0
    6.5984   -8.0753   18.0380 C   0  0  0  0  0  0  0  0  0  0  0  0
   -0.6529   -5.0199   26.6136 C   0  0  0  0  0  0  0  0  0  0  0  0
    2.6647   -3.0971   28.9111 O   0  0  0  0  0  0  0  0  0  0  0  0
    3.1785  -13.7967   14.0413 C   0  0  0  0  0  0  0  0  0  0  0  0
    1.5214   -4.7951   26.7255 N   0  0  0  0  0  0  0  0  0  0  0  0
  1 23  1  0
  2 17  1  0
  2 25  1  0
  3  8  4  0
  3 24  4  0
  4 10  4  0
  4 12  1  0
  4 21  4  0
  5  7  4  0
  5 24  4  0
  6 22  1  0
  7 12  4  0
  8 12  4  0
  9 20  1  0
 10 13  4  0
 11 14  1  0
 11 17  1  0
 13 15  4  0
 14 16  1  0
 15 23  4  0
 16 25  1  0
 18 21  4  0
 18 27  4  0
 19 22  2  0
 20 22  1  0
 20 28  1  0
 22 26  1  0
 23 27  4  0
M  END
$$$$

 Created by Python create_sdf_string function

 28 31  0  0  0  0  0  0  0  0999 V2000
    1.6143  -13.8096   15.3462 C   0  0  0  0  0  0  0  0  0  0  0  0
    0.3372   -3.9567   26.9474 N   0  0  0  0  0  0  0  0  0  0  0  0
    5.7215   -8.6419   18.4662 C   0  0  0  0  0  0  0  0  0  0  0  0
    6.2139   -8.1781   16.8106 O   0  0  0  0  0  0  0  0  0  0  0  0
    4.6323   -9.9382   17.7822 C   0  0  0  0  0  0  0  0  0  0  0  0
    2.4041  -11.6154   17.0893 C   0  0  0  0  0  0  0  0  0  0  0  0
    5.1657  -10.5681   17.3946 N   0  0  0  0  0  0  0  0  0  0  0  0
   -3.1022   -3.3165   26.9611 N   0  0  0  0  0  0  0  0  0  0  0  0
    1.9978  -13.1288   16.4451 N   0  0  0  0  0  0  0  0  0  0  0  0
   -1.9655   -5.0323   26.2736 O   0  0  0  0  0  0  0  0  0  0  0  0
    0.4421   -3.1565   27.6945 C   0  0  0  0  0  0  0  0  0  0  0  0
    3.7287  -12.3726   13.7600 C   0  0  0  0  0  0  0  0  0  0  0  0
    4.7285   -4.3593   28.1728 O   0  0  0  0  0  0  0  0  0  0  0  0
    1.8727   -5.4085   28.1323 C   0  0  0  0  0  0  0  0  0  0  0  0
    4.3953  -11.7221   15.0407 C   0  0  0  0  0  0  0  0  0  0  0  0
    6.7168   -8.3352   18.2399 C   0  0  0  0  0  0  0  0  0  0  0  0
   -0.6024   -4.7291   26.6106 C   0  0  0  0  0  0  0  0  0  0  0  0
    2.7116   -3.1795   29.2137 O   0  0  0  0  0  0  0  0  0  0  0  0
    3.0583  -14.0818   13.7455 C   0  0  0  0  0  0  0  0  0  0  0  0
    1.5986   -5.7998   27.4515 N   0  0  0  0  0  0  0  0  0  0  0  0
    3.7624  -10.4782   16.4174 He  0  0  0  0  0  0  0  0  0  0  0  0
    2.4306   -5.0895   29.9788 He  0  0  0  0  0  0  0  0  0  0  0  0
    6.4517   -9.4867   15.4427 He  0  0  0  0  0  0  0  0  0  0  0  0
    1.5605   -5.7354   27.7873 He  0  0  0  0  0  0  0  0  0  0  0  0
   -1.4240   -2.4186   27.5778 He  0  0  0  0  0  0  0  0  0  0  0  0
    2.3845  -11.9105   16.5058 He  0  0  0  0  0  0  0  0  0  0  0  0
    3.5233   -4.8494   28.8213 He  0  0  0  0  0  0  0  0  0  0  0  0
    2.1451  -13.9469   15.1599 He  0  0  0  0  0  0  0  0  0  0  0  0
  1  2  4  0
  1 10  3  0
  1 14  3  0
  2  7  4  0
  2 11  3  0
  2 18  4  0
  2 19  1  0
  3  5  4  0
  3  6  1  0
  3 16  4  0
  4  8  4  0
  4 17  4  0
  5 10  2  0
  5 18  1  0
  6 20  4  0
  7  9  1  0
  7 19  3  0
  8 10  1  0
  9 16  1  0
 10 12  1  0
 10 14  2  0
 10 17  1  0
 10 19  1  0
 12 15  4  0
 12 16  4  0
 12 19  4  0
 13 14  2  0
 13 17  1  0
 13 18  3  0
 15 20  1  0
 19 20  3  0
M  END
$$$$

 Created by Python create_sdf_string function

 28 30  0  0  0  0  0  0  0  0999 V2000
    1.3457  -14.3683   15.3262 C   0  0  0  0  0  0  0  0  0  0  0  0
    0.1693   -4.4526   27.1955 N   0  0  0  0  0  0  0  0  0  0  0  0
    5.7317   -8.8065   18.6774 C   0  0  0  0  0  0  0  0  0  0  0  0
    3.9971  -11.0145   16.2857 C   0  0  0  0  0  0  0  0  0  0  0  0
    6.6804   -8.4986   16.6644 C   0  0  0  0  0  0  0  0  0  0  0  0
    2.5673   -5.4610   29.8990 C   0  0  0  0  0  0  0  0  0  0  0  0
    5.8476   -9.5174   16.0812 C   0  0  0  0  0  0  0  0  0  0  0  0
    4.8425   -9.8825   18.1401 C   0  0  0  0  0  0  0  0  0  0  0  0
    1.3777   -5.2336   27.5590 C   0  0  0  0  0  0  0  0  0  0  0  0
    2.7934  -11.4192   16.9643 C   0  0  0  0  0  0  0  0  0  0  0  0
   -1.3427   -2.6117   27.4628 C   0  0  0  0  0  0  0  0  0  0  0  0
    4.8556  -10.1056   16.8235 C   0  0  0  0  0  0  0  0  0  0  0  0
    2.1875  -12.5304   16.5277 C   0  0  0  0  0  0  0  0  0  0  0  0
   -2.3567   -3.4540   26.8993 C   0  0  0  0  0  0  0  0  0  0  0  0
    1.9351  -12.9637   16.1200 N   0  0  0  0  0  0  0  0  0  0  0  0
   -2.0529   -4.6900   26.3831 C   0  0  0  0  0  0  0  0  0  0  0  0
   -0.0166   -3.1499   27.6114 C   0  0  0  0  0  0  0  0  0  0  0  0
    3.6949  -12.6110   14.4112 C   0  0  0  0  0  0  0  0  0  0  0  0
    4.4464   -4.5907   28.4466 O   0  0  0  0  0  0  0  0  0  0  0  0
    2.1978   -5.1995   28.3747 C   0  0  0  0  0  0  0  0  0  0  0  0
    4.2166  -11.6219   15.1267 C   0  0  0  0  0  0  0  0  0  0  0  0
    3.3840   -4.3317   28.9047 C   0  0  0  0  0  0  0  0  0  0  0  0
    2.0067  -14.2959   14.6143 C   0  0  0  0  0  0  0  0  0  0  0  0
    6.5693   -8.0611   17.9195 C   0  0  0  0  0  0  0  0  0  0  0  0
   -0.7212   -5.1520   26.5095 C   0  0  0  0  0  0  0  0  0  0  0  0
    3.1674   -3.0881   29.2666 O   0  0  0  0  0  0  0  0  0  0  0  0
    3.0403  -13.6227   14.0638 C   0  0  0  0  0  0  0  0  0  0  0  0
    1.5798   -6.2872   27.1047 O   0  0  0  0  0  0  0  0  0  0  0  0
  1 15  4  0
  1 23  1  0
  2  9  1  0
  2 17  1  0
  2 25  1  0
  3  8  4  0
  3 24  4  0
  4 10  4  0
  4 12  1  0
  4 21  4  0
  5  7  4  0
  5 24  4  0
  6 20  1  0
  6 22  1  0
  7 12  4  0
  8 12  4  0
  9 20  1  0
  9 28  1  0
 10 13  4  0
 11 14  1  0
 11 17  1  0
 13 15  4  0
 14 16  1  0
 16 25  1  0
 18 21  4  0
 18 27  4  0
 19 22  2  0
 20 22  1  0
 22 26  1  0
 23 27  4  0
M  END
$$$$

 Created by Python create_sdf_string function

 28 39  0  0  0  0  0  0  0  0999 V2000
    0.0430   -4.2589   26.3388 N   0  0  0  0  0  0  0  0  0  0  0  0
    6.0300   -8.5488   18.6267 C   0  0  0  0  0  0  0  0  0  0  0  0
    3.8072  -10.9020   16.0559 C   0  0  0  0  0  0  0  0  0  0  0  0
    5.6972   -8.9163   16.2888 C   0  0  0  0  0  0  0  0  0  0  0  0
    2.7047   -5.9178   29.6090 F   0  0  0  0  0  0  0  0  0  0  0  0
    6.4414   -9.5019   16.5679 C   0  0  0  0  0  0  0  0  0  0  0  0
    4.7501   -9.5445   17.8194 Br  0  0  0  0  0  0  0  0  0  0  0  0
    1.9276   -5.1789   27.6724 O   0  0  0  0  0  0  0  0  0  0  0  0
    2.4121  -11.5897   16.5868 C   0  0  0  0  0  0  0  0  0  0  0  0
   -0.9897   -3.1288   27.1390 C   0  0  0  0  0  0  0  0  0  0  0  0
    4.5419   -9.8585   15.9637 C   0  0  0  0  0  0  0  0  0  0  0  0
    1.9218  -12.1228   16.4787 F   0  0  0  0  0  0  0  0  0  0  0  0
    1.7138  -12.5210   16.4448 N   0  0  0  0  0  0  0  0  0  0  0  0
   -0.1278   -3.2720   28.1012 C   0  0  0  0  0  0  0  0  0  0  0  0
    3.9770  -12.8895   13.6654 C   0  0  0  0  0  0  0  0  0  0  0  0
    3.9697   -4.5713   28.6026 O   0  0  0  0  0  0  0  0  0  0  0  0
    3.4791  -11.2174   15.5805 C   0  0  0  0  0  0  0  0  0  0  0  0
    2.3392  -14.3906   14.4157 C   0  0  0  0  0  0  0  0  0  0  0  0
    6.9766   -8.0517   17.6266 C   0  0  0  0  0  0  0  0  0  0  0  0
   -0.0118   -4.9367   26.6286 C   0  0  0  0  0  0  0  0  0  0  0  0
    2.4542   -3.2173   29.7211 O   0  0  0  0  0  0  0  0  0  0  0  0
    3.4429  -13.1732   13.9400 C   0  0  0  0  0  0  0  0  0  0  0  0
    1.7342  -14.4150   15.4278 He  0  0  0  0  0  0  0  0  0  0  0  0
   -2.1591   -3.0622   26.4142 He  0  0  0  0  0  0  0  0  0  0  0  0
   -1.6920   -4.4473   27.1530 He  0  0  0  0  0  0  0  0  0  0  0  0
    2.0456   -5.1978   28.7425 He  0  0  0  0  0  0  0  0  0  0  0  0
    3.2877   -3.5657   28.8336 He  0  0  0  0  0  0  0  0  0  0  0  0
    2.3156   -5.2234   26.6639 He  0  0  0  0  0  0  0  0  0  0  0  0
  1  8  1  0
  1  9  2  0
  1 14  1  0
  1 19  4  0
  1 20  1  0
  2  4  2  0
  2  7  4  0
  2  9  1  0
  2 11  4  0
  2 19  4  0
  3  8  4  0
  3  9  1  0
  3 11  1  0
  3 14  3  0
  3 17  4  0
  3 19  3  0
  4  6  4  0
  4 19  4  0
  6  8  2  0
  6 11  4  0
  6 12  2  0
  7 11  4  0
  7 16  4  0
  7 21  2  0
  8 11  2  0
  8 14  4  0
  8 15  2  0
  8 22  1  0
  9 12  4  0
 10 16  1  0
 10 17  2  0
 11 17  4  0
 11 22  1  0
 12 13  4  0
 12 16  2  0
 14 16  3  0
 17 18  2  0
 18 22  4  0
 21 22  4  0
M  END
$$$$

 Created by Python create_sdf_string function

 28 31  0  0  0  0  0  0  0  0999 V2000
    1.5233  -14.3629   15.3156 C   0  0  0  0  0  0  0  0  0  0  0  0
    0.4114   -4.3709   27.1033 N   0  0  0  0  0  0  0  0  0  0  0  0
    5.7290   -8.6172   18.4374 C   0  0  0  0  0  0  0  0  0  0  0  0
    3.8663  -10.8726   16.1593 C   0  0  0  0  0  0  0  0  0  0  0  0
    6.7854   -8.6508   16.3480 C   0  0  0  0  0  0  0  0  0  0  0  0
    2.6134   -5.7782   29.7455 C   0  0  0  0  0  0  0  0  0  0  0  0
    5.8696   -9.5467   15.8227 C   0  0  0  0  0  0  0  0  0  0  0  0
    4.7731   -9.6396   17.9298 C   0  0  0  0  0  0  0  0  0  0  0  0
    1.6485   -4.9530   27.3303 C   0  0  0  0  0  0  0  0  0  0  0  0
    2.7080  -11.2751   16.6702 C   0  0  0  0  0  0  0  0  0  0  0  0
   -1.1466   -2.5331   27.2210 C   0  0  0  0  0  0  0  0  0  0  0  0
    4.8163   -9.9799   16.6563 C   0  0  0  0  0  0  0  0  0  0  0  0
    2.1743  -12.4204   16.1450 C   0  0  0  0  0  0  0  0  0  0  0  0
   -2.1000   -3.3408   26.5815 O   0  0  0  0  0  0  0  0  0  0  0  0
    1.5261  -13.2843   16.1738 N   0  0  0  0  0  0  0  0  0  0  0  0
   -1.9760   -4.7214   26.6160 C   0  0  0  0  0  0  0  0  0  0  0  0
    0.0863   -3.1527   27.7115 C   0  0  0  0  0  0  0  0  0  0  0  0
    3.7261  -12.9735   13.7331 C   0  0  0  0  0  0  0  0  0  0  0  0
    4.2590   -4.2563   28.7252 O   0  0  0  0  0  0  0  0  0  0  0  0
    1.9056   -5.0166   28.7089 C   0  0  0  0  0  0  0  0  0  0  0  0
    3.9770  -11.6824   15.0606 C   0  0  0  0  0  0  0  0  0  0  0  0
    3.1362   -4.1936   29.2532 P   0  0  0  0  0  0  0  0  0  0  0  0
    2.4792  -14.2109   14.4183 C   0  0  0  0  0  0  0  0  0  0  0  0
    6.6613   -8.1574   17.6512 C   0  0  0  0  0  0  0  0  0  0  0  0
   -0.5141   -5.1466   26.6181 C   0  0  0  0  0  0  0  0  0  0  0  0
    2.8105   -3.2032   29.8979 O   0  0  0  0  0  0  0  0  0  0  0  0
    3.2782  -12.8364   14.5412 C   0  0  0  0  0  0  0  0  0  0  0  0
    2.3508   -5.4470   26.5311 C   0  0  0  0  0  0  0  0  0  0  0  0
  1 15  4  0
  1 23  4  0
  2  9  1  0
  2 17  1  0
  2 25  1  0
  3  8  4  0
  3 24  4  0
  4 10  4  0
  4 12  1  0
  4 21  4  0
  5  7  4  0
  5 24  4  0
  6 20  1  0
  6 22  1  0
  7 12  4  0
  8 12  4  0
  9 20  1  0
  9 28  1  0
 10 13  4  0
 11 14  1  0
 11 17  1  0
 13 15  4  0
 14 16  1  0
 16 25  1  0
 18 23  4  0
 18 27  4  0
 19 22  2  0
 20 22  1  0
 21 27  4  0
 22 26  1  0
 23 27  4  0
M  END
$$$$

 Created by Python create_sdf_string function

 28 50  0  0  0  0  0  0  0  0999 V2000
    0.1539   -5.0430   26.4720 N   0  0  0  0  0  0  0  0  0  0  0  0
    5.5942   -7.8394   18.1870 C   0  0  0  0  0  0  0  0  0  0  0  0
    3.5045  -10.6695   16.2642 C   0  0  0  0  0  0  0  0  0  0  0  0
    6.3618   -8.4017   16.3193 P   0  0  0  0  0  0  0  0  0  0  0  0
    2.4548   -6.0409   29.7623 C   0  0  0  0  0  0  0  0  0  0  0  0
    5.9758   -9.8654   15.4951 C   0  0  0  0  0  0  0  0  0  0  0  0
    1.6630   -5.2422   27.6005 C   0  0  0  0  0  0  0  0  0  0  0  0
    2.5682  -10.7839   17.1619 C   0  0  0  0  0  0  0  0  0  0  0  0
   -0.7987   -2.6777   27.6279 C   0  0  0  0  0  0  0  0  0  0  0  0
    4.9752   -9.8406   16.6112 C   0  0  0  0  0  0  0  0  0  0  0  0
    2.3299  -12.0171   16.0113 C   0  0  0  0  0  0  0  0  0  0  0  0
   -2.1107   -2.9349   26.4166 O   0  0  0  0  0  0  0  0  0  0  0  0
    1.1652  -13.0963   16.8507 C   0  0  0  0  0  0  0  0  0  0  0  0
   -1.8438   -4.6556   27.2354 C   0  0  0  0  0  0  0  0  0  0  0  0
    0.4769   -3.0774   27.2805 N   0  0  0  0  0  0  0  0  0  0  0  0
    3.8422  -13.1165   14.2478 C   0  0  0  0  0  0  0  0  0  0  0  0
    4.8991   -4.7718   28.9565 O   0  0  0  0  0  0  0  0  0  0  0  0
    4.0442  -11.2608   15.8822 C   0  0  0  0  0  0  0  0  0  0  0  0
    3.3261   -4.2699   29.2258 P   0  0  0  0  0  0  0  0  0  0  0  0
   -0.1441   -5.2637   27.4368 C   0  0  0  0  0  0  0  0  0  0  0  0
    3.0776   -4.1998   30.0677 O   0  0  0  0  0  0  0  0  0  0  0  0
    2.8196  -13.3972   14.4835 C   0  0  0  0  0  0  0  0  0  0  0  0
    2.8347   -5.3628   26.7281 C   0  0  0  0  0  0  0  0  0  0  0  0
    1.6759  -14.2239   15.2329 He  0  0  0  0  0  0  0  0  0  0  0  0
    5.4669   -9.3703   17.9136 He  0  0  0  0  0  0  0  0  0  0  0  0
    2.0157   -4.9242   28.9607 He  0  0  0  0  0  0  0  0  0  0  0  0
    2.4493  -14.7429   14.8486 He  0  0  0  0  0  0  0  0  0  0  0  0
    7.0987   -8.5717   17.6883 He  0  0  0  0  0  0  0  0  0  0  0  0
  1 13  3  0
  1 15  1  0
  2  5  1  0
  2  6  1  0
  2 15  3  0
  2 21  2  0
  2 23  2  0
  3  4  2  0
  3  8  3  0
  3 10  1  0
  3 14  3  0
  3 17  1  0
  3 18  4  0
  4  6  4  0
  4 15  1  0
  4 19  4  0
  5  6  2  0
  5 11  4  0
  5 12  1  0
  5 13  1  0
  5 19  1  0
  5 22  2  0
  6 10  4  0
  6 17  3  0
  6 18  3  0
  6 19  3  0
  6 22  2  0
  7  9  4  0
  7 22  2  0
  7 23  1  0
  8  9  1  0
  8 11  4  0
  8 20  4  0
  8 23  3  0
  9 12  1  0
  9 14  4  0
  9 23  3  0
 10 14  4  0
 11 13  4  0
 12 14  3  0
 12 15  2  0
 12 17  2  0
 13 15  1  0
 14 15  3  0
 14 20  1  0
 16 23  2  0
 17 19  3  0
 17 20  4  0
 19 21  1  0
 20 22  4  0
M  END
$$$$

 Created by Python create_sdf_string function

 28 30  0  0  0  0  0  0  0  0999 V2000
    1.2059  -14.3777   15.6856 C   0  0  0  0  0  0  0  0  0  0  0  0
    0.5687   -4.6358   26.9956 N   0  0  0  0  0  0  0  0  0  0  0  0
    5.8483   -8.4154   18.3336 C   0  0  0  0  0  0  0  0  0  0  0  0
    3.9316  -10.8531   16.2880 C   0  0  0  0  0  0  0  0  0  0  0  0
    6.8939   -8.6264   16.2528 C   0  0  0  0  0  0  0  0  0  0  0  0
    2.5282   -6.0211   29.6747 C   0  0  0  0  0  0  0  0  0  0  0  0
    5.8928   -9.5958   15.7971 C   0  0  0  0  0  0  0  0  0  0  0  0
    4.8281   -9.3449   17.8818 C   0  0  0  0  0  0  0  0  0  0  0  0
    1.8023   -5.2772   27.4073 C   0  0  0  0  0  0  0  0  0  0  0  0
    2.7329  -11.2144   16.8241 C   0  0  0  0  0  0  0  0  0  0  0  0
   -0.8154   -2.6440   27.2847 C   0  0  0  0  0  0  0  0  0  0  0  0
    4.8441   -9.8944   16.6953 C   0  0  0  0  0  0  0  0  0  0  0  0
    2.2752  -12.4355   16.1838 C   0  0  0  0  0  0  0  0  0  0  0  0
   -1.8760   -3.3033   26.7271 O   0  0  0  0  0  0  0  0  0  0  0  0
    1.2097  -13.2312   16.3996 C   0  0  0  0  0  0  0  0  0  0  0  0
   -1.9295   -4.6785   27.0853 C   0  0  0  0  0  0  0  0  0  0  0  0
    0.4995   -3.2570   27.1344 C   0  0  0  0  0  0  0  0  0  0  0  0
    3.4593  -13.0202   14.5106 C   0  0  0  0  0  0  0  0  0  0  0  0
    4.6021   -4.6806   28.9364 O   0  0  0  0  0  0  0  0  0  0  0  0
    1.8037   -5.0270   28.7714 C   0  0  0  0  0  0  0  0  0  0  0  0
    4.2032  -11.6209   15.1451 N   0  0  0  0  0  0  0  0  0  0  0  0
    3.4407   -4.6810   29.4822 P   0  0  0  0  0  0  0  0  0  0  0  0
    2.1578  -14.5271   14.7246 C   0  0  0  0  0  0  0  0  0  0  0  0
    6.7886   -8.0422   17.4762 C   0  0  0  0  0  0  0  0  0  0  0  0
   -0.5232   -5.3393   27.3503 C   0  0  0  0  0  0  0  0  0  0  0  0
    3.2859   -3.8010   30.3765 O   0  0  0  0  0  0  0  0  0  0  0  0
    3.1250  -12.9018   15.0957 C   0  0  0  0  0  0  0  0  0  0  0  0
    2.7003   -5.5239   26.6237 C   0  0  0  0  0  0  0  0  0  0  0  0
  1 15  4  0
  1 23  4  0
  2  9  1  0
  2 17  1  0
  2 25  1  0
  3  8  4  0
  3 24  4  0
  4 10  4  0
  4 12  1  0
  4 21  4  0
  5  7  4  0
  5 24  4  0
  6 20  1  0
  6 22  1  0
  7 12  4  0
  8 12  4  0
  9 20  1  0
  9 28  1  0
 10 13  4  0
 11 14  1  0
 11 17  1  0
 13 15  4  0
 13 27  4  0
 14 16  1  0
 16 25  1  0
 18 21  4  0
 18 23  4  0
 18 27  4  0
 19 22  2  0
 22 26  1  0
M  END
$$$$

 Created by Python create_sdf_string function

 28 64  0  0  0  0  0  0  0  0999 V2000
    0.7505  -14.5078   15.8548 C   0  0  0  0  0  0  0  0  0  0  0  0
    0.6225   -5.4504   26.7428 N   0  0  0  0  0  0  0  0  0  0  0  0
    5.8461   -8.4210   17.9270 C   0  0  0  0  0  0  0  0  0  0  0  0
    3.9289  -10.6730   16.1590 C   0  0  0  0  0  0  0  0  0  0  0  0
    6.3144   -8.5403   16.6144 I   0  0  0  0  0  0  0  0  0  0  0  0
    2.5517   -5.6456   29.2710 C   0  0  0  0  0  0  0  0  0  0  0  0
    6.0764   -9.5035   15.0573 C   0  0  0  0  0  0  0  0  0  0  0  0
    4.8951   -9.1742   18.3035 C   0  0  0  0  0  0  0  0  0  0  0  0
    1.9578   -5.2171   27.6732 C   0  0  0  0  0  0  0  0  0  0  0  0
    2.6991  -10.2365   16.7226 C   0  0  0  0  0  0  0  0  0  0  0  0
   -0.6528   -2.2684   27.8029 F   0  0  0  0  0  0  0  0  0  0  0  0
    5.1671   -9.8368   16.6273 C   0  0  0  0  0  0  0  0  0  0  0  0
    1.6111  -13.2966   16.3439 C   0  0  0  0  0  0  0  0  0  0  0  0
    0.7781   -3.2594   27.0275 C   0  0  0  0  0  0  0  0  0  0  0  0
    4.0822  -12.4502   14.4821 C   0  0  0  0  0  0  0  0  0  0  0  0
    3.5953   -3.8832   28.4565 O   0  0  0  0  0  0  0  0  0  0  0  0
    1.7278   -4.9329   29.2694 C   0  0  0  0  0  0  0  0  0  0  0  0
    3.9395  -11.9902   15.4529 N   0  0  0  0  0  0  0  0  0  0  0  0
    3.7654   -4.9831   28.9655 N   0  0  0  0  0  0  0  0  0  0  0  0
    1.6651  -14.3348   15.1336 C   0  0  0  0  0  0  0  0  0  0  0  0
    6.3667   -8.1995   17.8665 C   0  0  0  0  0  0  0  0  0  0  0  0
    0.0137   -5.1967   27.0260 C   0  0  0  0  0  0  0  0  0  0  0  0
    3.5022   -3.6558   30.5455 O   0  0  0  0  0  0  0  0  0  0  0  0
    2.6012  -12.7125   14.9208 C   0  0  0  0  0  0  0  0  0  0  0  0
    2.8735   -5.3194   26.2770 C   0  0  0  0  0  0  0  0  0  0  0  0
    2.2333  -12.8448   15.7054 He  0  0  0  0  0  0  0  0  0  0  0  0
   -2.0748   -3.3490   27.3380 He  0  0  0  0  0  0  0  0  0  0  0  0
   -1.8320   -5.1433   26.7034 He  0  0  0  0  0  0  0  0  0  0  0  0
  1  4  3  0
  1  8  1  0
  1 15  2  0
  1 18  4  0
  1 20  4  0
  1 21  3  0
  2  5  1  0
  2  7  4  0
  2  9  1  0
  2 12  2  0
  2 14  1  0
  2 24  4  0
  3  8  4  0
  3 17  1  0
  3 21  4  0
  4  5  1  0
  4  6  4  0
  4  7  1  0
  4  9  1  0
  4 10  4  0
  4 12  4  0
  4 18  4  0
  4 21  1  0
  4 25  2  0
  5  9  4  0
  5 13  3  0
  5 17  3  0
  5 21  1  0
  5 22  3  0
  6 12  1  0
  6 14  3  0
  6 19  1  0
  6 24  2  0
  7 10  4  0
  7 12  4  0
  8 20  4  0
  8 21  4  0
  9 17  1  0
  9 25  1  0
 10 15  4  0
 11 14  4  0
 11 15  3  0
 11 20  1  0
 11 22  2  0
 11 24  2  0
 12 15  4  0
 12 21  4  0
 12 22  4  0
 12 23  3  0
 13 15  2  0
 13 17  4  0
 13 18  2  0
 13 22  4  0
 13 23  2  0
 14 23  1  0
 15 18  4  0
 15 24  4  0
 16 20  2  0
 18 22  1  0
 19 23  1  0
 20 22  1  0
 21 22  4  0
 23 25  2  0
 24 25  3  0
M  END
$$$$

 Created by Python create_sdf_string function

 28 30  0  0  0  0  0  0  0  0999 V2000
    0.9454  -14.4145   15.8691 C   0  0  0  0  0  0  0  0  0  0  0  0
    0.6245   -4.6807   27.0028 N   0  0  0  0  0  0  0  0  0  0  0  0
    5.8201   -8.4519   18.3245 C   0  0  0  0  0  0  0  0  0  0  0  0
    4.0081  -10.7986   16.0968 C   0  0  0  0  0  0  0  0  0  0  0  0
    6.7501   -8.3494   16.3059 C   0  0  0  0  0  0  0  0  0  0  0  0
    2.9038   -5.6359   29.4716 C   0  0  0  0  0  0  0  0  0  0  0  0
    5.9650   -9.3367   15.7984 C   0  0  0  0  0  0  0  0  0  0  0  0
    4.8765   -9.4900   17.8645 C   0  0  0  0  0  0  0  0  0  0  0  0
    1.7346   -5.3282   27.4195 C   0  0  0  0  0  0  0  0  0  0  0  0
    2.8213  -11.1273   16.6527 C   0  0  0  0  0  0  0  0  0  0  0  0
   -0.7812   -2.7529   27.5017 C   0  0  0  0  0  0  0  0  0  0  0  0
    4.9312   -9.8344   16.6333 C   0  0  0  0  0  0  0  0  0  0  0  0
    2.2074  -12.3538   16.1336 C   0  0  0  0  0  0  0  0  0  0  0  0
   -1.9485   -3.4808   27.1645 O   0  0  0  0  0  0  0  0  0  0  0  0
    1.1128  -13.1272   16.5494 C   0  0  0  0  0  0  0  0  0  0  0  0
   -1.8593   -4.8134   26.7644 C   0  0  0  0  0  0  0  0  0  0  0  0
    0.5600   -3.3146   27.1163 C   0  0  0  0  0  0  0  0  0  0  0  0
    3.7617  -12.6162   14.5187 C   0  0  0  0  0  0  0  0  0  0  0  0
    4.1747   -3.8281   28.5051 O   0  0  0  0  0  0  0  0  0  0  0  0
    1.7294   -5.2888   28.9377 C   0  0  0  0  0  0  0  0  0  0  0  0
    4.3591  -11.4804   14.9883 N   0  0  0  0  0  0  0  0  0  0  0  0
    3.6279   -4.4617   29.3960 C   0  0  0  0  0  0  0  0  0  0  0  0
    1.7814  -14.3211   14.8808 C   0  0  0  0  0  0  0  0  0  0  0  0
    6.3846   -8.0241   17.8101 C   0  0  0  0  0  0  0  0  0  0  0  0
   -0.4775   -5.4013   27.0335 C   0  0  0  0  0  0  0  0  0  0  0  0
    3.7036   -3.9238   30.4865 O   0  0  0  0  0  0  0  0  0  0  0  0
    2.6779  -13.0677   15.1465 C   0  0  0  0  0  0  0  0  0  0  0  0
    2.7429   -5.5165   26.6485 C   0  0  0  0  0  0  0  0  0  0  0  0
  1 15  4  0
  1 23  4  0
  2  9  1  0
  2 17  1  0
  2 25  1  0
  3  8  4  0
  3 24  4  0
  4 10  4  0
  4 12  1  0
  4 21  4  0
  5  7  4  0
  5 24  4  0
  6 20  1  0
  6 22  1  0
  7 12  4  0
  8 12  4  0
  9 20  1  0
  9 28  1  0
 10 13  4  0
 11 14  1  0
 11 17  1  0
 13 15  4  0
 13 27  4  0
 14 16  1  0
 16 25  1  0
 18 21  4  0
 18 27  4  0
 19 22  2  0
 22 26  1  0
 23 27  4  0
M  END
$$$$

 Created by Python create_sdf_string function

 28 45  0  0  0  0  0  0  0  0999 V2000
    0.6267  -14.6769   16.1645 C   0  0  0  0  0  0  0  0  0  0  0  0
    0.5013   -5.0398   27.4452 P   0  0  0  0  0  0  0  0  0  0  0  0
    4.2592  -10.6238   16.1526 C   0  0  0  0  0  0  0  0  0  0  0  0
    6.4867   -8.0779   16.4507 Cl  0  0  0  0  0  0  0  0  0  0  0  0
    3.0912   -5.6437   29.0584 C   0  0  0  0  0  0  0  0  0  0  0  0
    5.8083   -8.8432   15.9546 C   0  0  0  0  0  0  0  0  0  0  0  0
    4.6013   -9.1613   17.4850 N   0  0  0  0  0  0  0  0  0  0  0  0
    1.5873   -5.4433   27.0715 C   0  0  0  0  0  0  0  0  0  0  0  0
    2.8873  -10.4348   16.3915 C   0  0  0  0  0  0  0  0  0  0  0  0
   -0.6401   -2.6466   27.7739 Cl  0  0  0  0  0  0  0  0  0  0  0  0
    4.3968   -9.5425   17.5314 C   0  0  0  0  0  0  0  0  0  0  0  0
    2.6420  -12.2521   16.1258 C   0  0  0  0  0  0  0  0  0  0  0  0
   -1.8515   -4.6960   27.0525 C   0  0  0  0  0  0  0  0  0  0  0  0
    0.0896   -3.3460   26.9538 C   0  0  0  0  0  0  0  0  0  0  0  0
    3.8074  -12.9428   14.2709 C   0  0  0  0  0  0  0  0  0  0  0  0
    4.0318   -4.2943   29.0498 O   0  0  0  0  0  0  0  0  0  0  0  0
    4.3387  -11.8736   14.8114 C   0  0  0  0  0  0  0  0  0  0  0  0
   -0.8743   -5.6341   26.7534 C   0  0  0  0  0  0  0  0  0  0  0  0
    3.7243   -4.1758   30.4753 O   0  0  0  0  0  0  0  0  0  0  0  0
    2.8372  -13.2105   14.6734 C   0  0  0  0  0  0  0  0  0  0  0  0
    2.1471   -5.7588   26.3178 O   0  0  0  0  0  0  0  0  0  0  0  0
    5.6571   -8.5870   18.1449 He  0  0  0  0  0  0  0  0  0  0  0  0
   -1.8881   -3.4123   27.6317 He  0  0  0  0  0  0  0  0  0  0  0  0
    0.6322  -13.1861   17.1370 He  0  0  0  0  0  0  0  0  0  0  0  0
    1.6958   -5.3596   29.1250 He  0  0  0  0  0  0  0  0  0  0  0  0
    3.2577   -4.2042   29.7642 He  0  0  0  0  0  0  0  0  0  0  0  0
    1.7944  -13.8702   15.3343 He  0  0  0  0  0  0  0  0  0  0  0  0
    6.7149   -8.0443   17.7988 He  0  0  0  0  0  0  0  0  0  0  0  0
  1 12  3  0
  1 14  4  0
  1 16  2  0
  1 18  4  0
  2  5  2  0
  2  8  1  0
  2 13  2  0
  2 14  1  0
  2 18  1  0
  3  4  1  0
  3  9  4  0
  3 11  1  0
  3 14  1  0
  3 17  4  0
  4  6  3  0
  4  7  2  0
  4 14  4  0
  4 16  2  0
  4 21  4  0
  5 11  2  0
  5 14  3  0
  5 16  1  0
  6  9  4  0
  7 11  4  0
  7 17  2  0
  8 16  1  0
  8 21  1  0
  9 12  4  0
  9 14  2  0
  9 21  3  0
 10 14  1  0
 10 17  2  0
 10 21  2  0
 11 14  1  0
 11 16  1  0
 11 21  3  0
 12 15  2  0
 12 17  3  0
 12 20  4  0
 13 18  1  0
 14 18  2  0
 15 17  4  0
 15 19  1  0
 15 20  2  0
 18 20  4  0
M  END
$$$$

 Created by Python create_sdf_string function

 28 30  0  0  0  0  0  0  0  0999 V2000
    0.8519  -14.1904   16.0473 C   0  0  0  0  0  0  0  0  0  0  0  0
    0.3078   -4.7619   27.1635 N   0  0  0  0  0  0  0  0  0  0  0  0
    5.6348   -8.5512   18.4379 C   0  0  0  0  0  0  0  0  0  0  0  0
    4.0925  -10.7556   16.0526 C   0  0  0  0  0  0  0  0  0  0  0  0
    6.7066   -8.1094   16.4225 C   0  0  0  0  0  0  0  0  0  0  0  0
    3.1393   -5.5185   29.2397 C   0  0  0  0  0  0  0  0  0  0  0  0
    5.8547   -9.0240   15.8130 C   0  0  0  0  0  0  0  0  0  0  0  0
    4.7373   -9.4494   17.8602 C   0  0  0  0  0  0  0  0  0  0  0  0
    1.5479   -5.4127   27.3905 C   0  0  0  0  0  0  0  0  0  0  0  0
    2.8555  -11.1977   16.6163 C   0  0  0  0  0  0  0  0  0  0  0  0
   -0.7830   -2.7261   27.6943 C   0  0  0  0  0  0  0  0  0  0  0  0
    4.8561   -9.7272   16.5770 C   0  0  0  0  0  0  0  0  0  0  0  0
    2.1949  -12.3371   16.2290 C   0  0  0  0  0  0  0  0  0  0  0  0
   -2.0375   -3.4359   27.5773 C   0  0  0  0  0  0  0  0  0  0  0  0
    0.9955  -12.9547   16.7829 N   0  0  0  0  0  0  0  0  0  0  0  0
   -2.1113   -4.7122   27.0022 C   0  0  0  0  0  0  0  0  0  0  0  0
    0.3687   -3.3340   27.0176 C   0  0  0  0  0  0  0  0  0  0  0  0
    3.8068  -12.6905   14.5272 C   0  0  0  0  0  0  0  0  0  0  0  0
    4.4311   -4.0905   28.4523 O   0  0  0  0  0  0  0  0  0  0  0  0
    1.9116   -5.4878   28.7579 C   0  0  0  0  0  0  0  0  0  0  0  0
    4.5131  -11.5073   14.9723 C   0  0  0  0  0  0  0  0  0  0  0  0
    3.6116   -4.4496   29.7642 C   0  0  0  0  0  0  0  0  0  0  0  0
    1.8806  -14.1930   15.1307 N   0  0  0  0  0  0  0  0  0  0  0  0
    6.5631   -7.9117   17.7760 C   0  0  0  0  0  0  0  0  0  0  0  0
   -0.8000   -5.4171   26.8953 C   0  0  0  0  0  0  0  0  0  0  0  0
    3.5989   -4.0289   30.7733 O   0  0  0  0  0  0  0  0  0  0  0  0
    2.6886  -13.0817   15.2081 C   0  0  0  0  0  0  0  0  0  0  0  0
    2.2261   -5.8282   26.4960 O   0  0  0  0  0  0  0  0  0  0  0  0
  1 15  4  0
  1 23  4  0
  2  9  1  0
  2 17  1  0
  2 25  1  0
  3  8  4  0
  3 24  4  0
  4 10  4  0
  4 12  1  0
  4 21  4  0
  5  7  4  0
  5 24  4  0
  6 20  1  0
  6 22  1  0
  7 12  4  0
  8 12  4  0
  9 20  1  0
  9 28  1  0
 10 13  4  0
 11 14  1  0
 11 17  1  0
 13 15  4  0
 13 27  4  0
 14 16  1  0
 16 25  1  0
 18 21  4  0
 18 27  4  0
 19 22  2  0
 22 26  1  0
 23 27  4  0
M  END
$$$$

 Created by Python create_sdf_string function

 28 69  0  0  0  0  0  0  0  0999 V2000
    1.3152  -14.5392   16.2544 C   0  0  0  0  0  0  0  0  0  0  0  0
    5.3043   -8.5365   18.8915 F   0  0  0  0  0  0  0  0  0  0  0  0
    3.8048  -10.6527   16.5412 C   0  0  0  0  0  0  0  0  0  0  0  0
    6.9861   -8.6446   17.2085 C   0  0  0  0  0  0  0  0  0  0  0  0
    2.5836   -5.5611   28.9230 F   0  0  0  0  0  0  0  0  0  0  0  0
    5.6355   -8.9182   15.7646 I   0  0  0  0  0  0  0  0  0  0  0  0
    4.6564   -9.2975   17.7377 P   0  0  0  0  0  0  0  0  0  0  0  0
    1.0672   -5.0617   27.5381 C   0  0  0  0  0  0  0  0  0  0  0  0
    2.7177  -10.9151   16.6705 C   0  0  0  0  0  0  0  0  0  0  0  0
   -0.6628   -2.4724   28.1649 C   0  0  0  0  0  0  0  0  0  0  0  0
    4.8581   -9.6439   17.3763 C   0  0  0  0  0  0  0  0  0  0  0  0
    2.4805  -12.2880   16.3878 F   0  0  0  0  0  0  0  0  0  0  0  0
   -1.9143   -4.0251   27.4456 C   0  0  0  0  0  0  0  0  0  0  0  0
    0.6291  -12.6403   16.2701 N   0  0  0  0  0  0  0  0  0  0  0  0
   -1.8064   -4.4328   27.0853 C   0  0  0  0  0  0  0  0  0  0  0  0
    0.2010   -3.5546   26.9792 C   0  0  0  0  0  0  0  0  0  0  0  0
    3.5020  -12.0785   14.2995 I   0  0  0  0  0  0  0  0  0  0  0  0
    1.5689   -5.6724   28.7613 C   0  0  0  0  0  0  0  0  0  0  0  0
    4.4394  -11.4100   14.7306 C   0  0  0  0  0  0  0  0  0  0  0  0
    3.4931   -4.1393   30.1062 C   0  0  0  0  0  0  0  0  0  0  0  0
    1.9731  -14.2849   14.6147 F   0  0  0  0  0  0  0  0  0  0  0  0
    6.4887   -8.0255   17.4317 N   0  0  0  0  0  0  0  0  0  0  0  0
   -0.7986   -5.5249   26.9084 C   0  0  0  0  0  0  0  0  0  0  0  0
    3.3788   -4.1117   30.7188 O   0  0  0  0  0  0  0  0  0  0  0  0
    2.2061  -13.5077   15.5802 C   0  0  0  0  0  0  0  0  0  0  0  0
    2.4444   -6.0235   26.3574 Se  0  0  0  0  0  0  0  0  0  0  0  0
    0.5352   -5.0221   27.4561 He  0  0  0  0  0  0  0  0  0  0  0  0
    4.2450   -4.1918   28.1303 He  0  0  0  0  0  0  0  0  0  0  0  0
  1  7  4  0
  1 14  4  0
  1 26  1  0
  2  7  4  0
  2 10  2  0
  2 15  2  0
  2 17  2  0
  2 22  4  0
  2 23  2  0
  2 24  4  0
  2 25  2  0
  3  9  4  0
  3 11  1  0
  3 19  4  0
  4  6  4  0
  4 22  4  0
  5 18  1  0
  5 20  2  0
  5 21  3  0
  5 22  2  0
  6  9  3  0
  6 11  4  0
  6 13  4  0
  6 18  4  0
  7  8  4  0
  7 11  4  0
  7 21  4  0
  7 26  4  0
  8 18  1  0
  8 21  1  0
  8 22  3  0
  8 23  4  0
  8 26  1  0
  9 12  4  0
  9 14  4  0
  9 20  2  0
  9 22  3  0
 10 12  2  0
 10 17  2  0
 10 19  4  0
 10 21  4  0
 10 23  4  0
 11 18  2  0
 12 14  4  0
 12 25  4  0
 13 15  1  0
 13 26  2  0
 14 15  3  0
 14 20  2  0
 14 24  3  0
 14 26  4  0
 15 21  4  0
 15 23  1  0
 16 18  4  0
 16 23  1  0
 17 19  4  0
 17 22  2  0
 17 23  1  0
 17 25  1  0
 18 25  2  0
 19 21  3  0
 20 25  2  0
 20 26  1  0
 21 25  4  0
 22 24  4  0
 22 25  3  0
 22 26  2  0
 23 26  3  0
 24 25  1  0
M  END
$$$$

 Created by Python create_sdf_string function

 28 30  0  0  0  0  0  0  0  0999 V2000
    0.9151  -14.1614   15.8789 C   0  0  0  0  0  0  0  0  0  0  0  0
    0.4097   -4.7249   27.0917 N   0  0  0  0  0  0  0  0  0  0  0  0
    5.5773   -8.5023   18.6309 C   0  0  0  0  0  0  0  0  0  0  0  0
    4.0003  -10.7340   16.1836 C   0  0  0  0  0  0  0  0  0  0  0  0
    6.8447   -8.3877   16.6984 C   0  0  0  0  0  0  0  0  0  0  0  0
    2.8418   -5.7370   29.2904 C   0  0  0  0  0  0  0  0  0  0  0  0
    5.9795   -9.2779   16.0693 C   0  0  0  0  0  0  0  0  0  0  0  0
    4.6143   -9.4117   18.0265 C   0  0  0  0  0  0  0  0  0  0  0  0
    1.5519   -5.2837   27.3622 C   0  0  0  0  0  0  0  0  0  0  0  0
    2.7737  -11.2243   16.7932 C   0  0  0  0  0  0  0  0  0  0  0  0
   -0.8510   -2.8014   27.8605 C   0  0  0  0  0  0  0  0  0  0  0  0
    4.8192   -9.8195   16.7673 C   0  0  0  0  0  0  0  0  0  0  0  0
    2.1450  -12.3276   16.2695 N   0  0  0  0  0  0  0  0  0  0  0  0
   -2.1193   -3.5372   27.6511 C   0  0  0  0  0  0  0  0  0  0  0  0
    1.0621  -13.0829   16.7205 N   0  0  0  0  0  0  0  0  0  0  0  0
   -2.0820   -4.7299   26.9047 C   0  0  0  0  0  0  0  0  0  0  0  0
    0.2683   -3.3074   27.1090 C   0  0  0  0  0  0  0  0  0  0  0  0
    3.6835  -12.5058   14.4798 C   0  0  0  0  0  0  0  0  0  0  0  0
    4.2119   -4.0302   28.5706 O   0  0  0  0  0  0  0  0  0  0  0  0
    1.7126   -5.7617   28.7807 C   0  0  0  0  0  0  0  0  0  0  0  0
    4.3168  -11.3268   14.9424 C   0  0  0  0  0  0  0  0  0  0  0  0
    3.5335   -4.5036   29.4926 C   0  0  0  0  0  0  0  0  0  0  0  0
    1.9514  -14.1529   14.9775 N   0  0  0  0  0  0  0  0  0  0  0  0
    6.6115   -8.0841   17.9780 C   0  0  0  0  0  0  0  0  0  0  0  0
   -0.7469   -5.4194   26.9447 C   0  0  0  0  0  0  0  0  0  0  0  0
    3.4372   -4.0092   30.5765 O   0  0  0  0  0  0  0  0  0  0  0  0
    2.6439  -12.9713   15.1753 C   0  0  0  0  0  0  0  0  0  0  0  0
    2.3463   -5.8206   26.5092 C   0  0  0  0  0  0  0  0  0  0  0  0
  1 15  4  0
  1 23  4  0
  2  9  1  0
  2 17  1  0
  2 25  1  0
  3  8  4  0
  3 24  4  0
  4 10  4  0
  4 12  1  0
  4 21  4  0
  5  7  4  0
  5 24  4  0
  6 20  1  0
  6 22  1  0
  7 12  4  0
  8 12  4  0
  9 20  1  0
  9 28  1  0
 10 13  4  0
 11 14  1  0
 11 17  1  0
 13 15  4  0
 13 27  4  0
 14 16  1  0
 16 25  1  0
 18 21  4  0
 18 27  4  0
 19 22  1  0
 22 26  2  0
 23 27  4  0
M  END
$$$$

 Created by Python create_sdf_string function

 28 70  0  0  0  0  0  0  0  0999 V2000
    0.7623  -14.3763   15.7364 C   0  0  0  0  0  0  0  0  0  0  0  0
    0.9256   -4.4424   27.2312 N   0  0  0  0  0  0  0  0  0  0  0  0
    4.2331  -10.8506   16.2811 C   0  0  0  0  0  0  0  0  0  0  0  0
    6.6822   -8.0317   17.0286 C   0  0  0  0  0  0  0  0  0  0  0  0
    3.3960   -5.6357   28.7386 C   0  0  0  0  0  0  0  0  0  0  0  0
    5.8843   -9.6969   16.0968 C   0  0  0  0  0  0  0  0  0  0  0  0
    4.3261   -9.3806   17.9795 C   0  0  0  0  0  0  0  0  0  0  0  0
    1.8586   -4.9023   27.2919 C   0  0  0  0  0  0  0  0  0  0  0  0
    2.5936  -11.1048   17.3298 C   0  0  0  0  0  0  0  0  0  0  0  0
   -0.2820   -3.1145   28.3114 C   0  0  0  0  0  0  0  0  0  0  0  0
    5.2016  -10.3894   16.6770 C   0  0  0  0  0  0  0  0  0  0  0  0
    1.9791  -12.5524   16.5056 F   0  0  0  0  0  0  0  0  0  0  0  0
   -2.6063   -3.7166   27.1825 C   0  0  0  0  0  0  0  0  0  0  0  0
    0.9469  -13.1054   17.0342 N   0  0  0  0  0  0  0  0  0  0  0  0
   -1.8765   -4.7180   26.6559 C   0  0  0  0  0  0  0  0  0  0  0  0
    0.7492   -3.1115   27.3744 C   0  0  0  0  0  0  0  0  0  0  0  0
    3.8282  -12.7084   15.0124 C   0  0  0  0  0  0  0  0  0  0  0  0
    3.8886   -3.9102   28.5310 O   0  0  0  0  0  0  0  0  0  0  0  0
    1.7612   -5.9837   29.0585 O   0  0  0  0  0  0  0  0  0  0  0  0
    4.2823  -11.3207   14.4443 C   0  0  0  0  0  0  0  0  0  0  0  0
    3.6592   -4.3060   29.1406 C   0  0  0  0  0  0  0  0  0  0  0  0
    2.3068  -14.2734   14.2852 N   0  0  0  0  0  0  0  0  0  0  0  0
    6.3623   -8.2707   18.1179 C   0  0  0  0  0  0  0  0  0  0  0  0
   -0.6341   -5.2560   27.2257 C   0  0  0  0  0  0  0  0  0  0  0  0
    3.5718   -4.0431   30.0859 O   0  0  0  0  0  0  0  0  0  0  0  0
    2.9101  -13.2635   14.9282 C   0  0  0  0  0  0  0  0  0  0  0  0
    2.0921   -5.8639   26.2697 C   0  0  0  0  0  0  0  0  0  0  0  0
    6.0722   -8.1133   18.4661 He  0  0  0  0  0  0  0  0  0  0  0  0
  1  9  1  0
  1 22  4  0
  2  6  3  0
  2 16  3  0
  2 23  3  0
  2 24  1  0
  2 26  3  0
  3  4  3  0
  3  6  4  0
  3  9  4  0
  3 11  1  0
  3 15  4  0
  3 16  1  0
  3 20  4  0
  3 22  4  0
  4  5  2  0
  4  6  4  0
  4 15  4  0
  4 16  3  0
  4 19  1  0
  4 20  3  0
  4 22  3  0
  4 23  4  0
  5 19  1  0
  5 21  1  0
  5 23  3  0
  6  7  1  0
  6 17  3  0
  7  9  1  0
  7 11  4  0
  7 15  3  0
  7 26  2  0
  7 27  1  0
  8 13  3  0
  8 17  2  0
  8 21  4  0
  8 27  1  0
  9 12  4  0
  9 16  2  0
  9 18  4  0
 10 13  1  0
 10 21  3  0
 10 25  2  0
 11 12  4  0
 11 18  1  0
 11 19  2  0
 12 14  4  0
 12 26  4  0
 13 15  4  0
 13 18  4  0
 13 19  1  0
 13 20  2  0
 14 24  1  0
 15 22  4  0
 15 24  1  0
 15 26  1  0
 16 18  1  0
 16 23  1  0
 17 20  4  0
 18 19  3  0
 18 21  1  0
 18 26  3  0
 19 23  4  0
 19 24  1  0
 20 22  4  0
 20 23  4  0
 21 22  4  0
 21 25  2  0
 21 27  2  0
 24 27  4  0
M  END
$$$$

 Created by Python create_sdf_string function

 28 30  0  0  0  0  0  0  0  0999 V2000
    0.9101  -14.1837   15.7663 C   0  0  0  0  0  0  0  0  0  0  0  0
    0.6159   -4.5140   27.2196 N   0  0  0  0  0  0  0  0  0  0  0  0
    5.7099   -8.4862   18.6393 C   0  0  0  0  0  0  0  0  0  0  0  0
    4.1461  -10.9394   16.2920 C   0  0  0  0  0  0  0  0  0  0  0  0
    6.8768   -8.4311   16.6890 C   0  0  0  0  0  0  0  0  0  0  0  0
    3.3195   -5.8081   29.0282 C   0  0  0  0  0  0  0  0  0  0  0  0
    6.0895   -9.3313   16.0968 C   0  0  0  0  0  0  0  0  0  0  0  0
    4.7779   -9.5465   18.0814 C   0  0  0  0  0  0  0  0  0  0  0  0
    1.8029   -5.0280   27.2942 C   0  0  0  0  0  0  0  0  0  0  0  0
    2.9213  -11.4574   16.8819 C   0  0  0  0  0  0  0  0  0  0  0  0
   -0.9405   -2.8039   28.0776 C   0  0  0  0  0  0  0  0  0  0  0  0
    4.9072   -9.9551   16.8141 C   0  0  0  0  0  0  0  0  0  0  0  0
    2.2596  -12.5308   16.3149 C   0  0  0  0  0  0  0  0  0  0  0  0
   -2.1061   -3.4991   27.3866 C   0  0  0  0  0  0  0  0  0  0  0  0
    1.0662  -13.2040   16.6698 N   0  0  0  0  0  0  0  0  0  0  0  0
   -1.8181   -4.7324   26.6810 C   0  0  0  0  0  0  0  0  0  0  0  0
    0.3842   -3.2007   27.5497 C   0  0  0  0  0  0  0  0  0  0  0  0
    3.7007  -12.6016   14.5041 C   0  0  0  0  0  0  0  0  0  0  0  0
    4.1452   -3.5738   28.3553 O   0  0  0  0  0  0  0  0  0  0  0  0
    1.9635   -5.8620   28.7150 C   0  0  0  0  0  0  0  0  0  0  0  0
    4.4976  -11.5346   15.1018 C   0  0  0  0  0  0  0  0  0  0  0  0
    3.6718   -4.3586   29.2227 C   0  0  0  0  0  0  0  0  0  0  0  0
    1.9278  -14.2091   14.8842 N   0  0  0  0  0  0  0  0  0  0  0  0
    6.6062   -7.9925   17.9187 C   0  0  0  0  0  0  0  0  0  0  0  0
   -0.4684   -5.3440   27.0176 C   0  0  0  0  0  0  0  0  0  0  0  0
    3.4977   -4.0102   30.3273 O   0  0  0  0  0  0  0  0  0  0  0  0
    2.7083  -13.1179   15.1654 C   0  0  0  0  0  0  0  0  0  0  0  0
    2.3615   -5.7805   26.3467 C   0  0  0  0  0  0  0  0  0  0  0  0
  1 15  4  0
  1 23  4  0
  2  9  1  0
  2 17  1  0
  2 25  1  0
  3  8  4  0
  3 24  4  0
  4 10  4  0
  4 12  1  0
  4 21  4  0
  5  7  4  0
  5 24  4  0
  6 20  1  0
  6 22  1  0
  7 12  4  0
  8 12  4  0
  9 20  1  0
  9 28  1  0
 10 13  4  0
 11 14  1  0
 11 17  1  0
 13 15  4  0
 13 27  4  0
 14 16  1  0
 16 25  1  0
 18 21  4  0
 18 27  4  0
 19 22  1  0
 22 26  2  0
 23 27  4  0
M  END
$$$$

 Created by Python create_sdf_string function

 28 47  0  0  0  0  0  0  0  0999 V2000
    1.1019  -14.0418   15.8765 C   0  0  0  0  0  0  0  0  0  0  0  0
    0.4804   -4.8053   27.3515 N   0  0  0  0  0  0  0  0  0  0  0  0
    5.5668   -8.5632   18.8862 P   0  0  0  0  0  0  0  0  0  0  0  0
    4.0471  -10.7652   16.3063 C   0  0  0  0  0  0  0  0  0  0  0  0
    6.8694   -8.5109   16.3521 C   0  0  0  0  0  0  0  0  0  0  0  0
    2.5408   -6.0211   28.6559 C   0  0  0  0  0  0  0  0  0  0  0  0
    6.1489   -9.3726   15.9313 C   0  0  0  0  0  0  0  0  0  0  0  0
    4.9555   -9.4150   18.3785 C   0  0  0  0  0  0  0  0  0  0  0  0
    1.8639   -5.2186   27.1608 B   0  0  0  0  0  0  0  0  0  0  0  0
   -0.8563   -2.7344   28.5814 C   0  0  0  0  0  0  0  0  0  0  0  0
    4.6752  -10.1755   16.7664 C   0  0  0  0  0  0  0  0  0  0  0  0
    2.3341  -12.8444   16.6311 C   0  0  0  0  0  0  0  0  0  0  0  0
   -2.1211   -3.3250   27.5446 Cl  0  0  0  0  0  0  0  0  0  0  0  0
    1.2380  -13.1940   16.7518 N   0  0  0  0  0  0  0  0  0  0  0  0
    0.5291   -3.3675   27.5034 C   0  0  0  0  0  0  0  0  0  0  0  0
    3.4283  -12.4872   14.5892 C   0  0  0  0  0  0  0  0  0  0  0  0
    4.5358   -3.4850   28.8381 O   0  0  0  0  0  0  0  0  0  0  0  0
    1.0083   -6.1730   28.7368 C   0  0  0  0  0  0  0  0  0  0  0  0
    4.2410  -11.6742   15.3039 C   0  0  0  0  0  0  0  0  0  0  0  0
    3.3781   -4.8668   29.4820 C   0  0  0  0  0  0  0  0  0  0  0  0
    6.5920   -8.2147   18.0408 C   0  0  0  0  0  0  0  0  0  0  0  0
   -0.7862   -5.7163   26.6830 C   0  0  0  0  0  0  0  0  0  0  0  0
    2.5173  -13.3213   15.3742 C   0  0  0  0  0  0  0  0  0  0  0  0
    2.9700   -5.8424   26.2768 C   0  0  0  0  0  0  0  0  0  0  0  0
    2.8044  -11.2755   16.9671 He  0  0  0  0  0  0  0  0  0  0  0  0
   -2.1434   -4.6212   26.5935 He  0  0  0  0  0  0  0  0  0  0  0  0
    1.7831  -14.6809   14.4477 He  0  0  0  0  0  0  0  0  0  0  0  0
    3.5839   -4.3200   30.3020 He  0  0  0  0  0  0  0  0  0  0  0  0
  1 12  1  0
  1 14  4  0
  2  7  2  0
  2  8  1  0
  2  9  1  0
  2 15  1  0
  2 16  4  0
  2 22  1  0
  3  8  4  0
  3 13  4  0
  3 21  4  0
  3 24  3  0
  4 11  1  0
  4 19  4  0
  5  7  4  0
  5  9  1  0
  5 21  4  0
  5 24  3  0
  6 12  4  0
  6 18  1  0
  6 19  1  0
  6 20  4  0
  7 11  4  0
  7 15  3  0
  7 24  1  0
  8 11  4  0
  8 17  2  0
  9 11  1  0
  9 12  4  0
  9 18  1  0
  9 24  1  0
 10 13  1  0
 10 14  3  0
 10 15  1  0
 10 20  2  0
 10 21  4  0
 12 13  4  0
 12 15  3  0
 12 18  4  0
 12 23  4  0
 13 15  1  0
 15 20  3  0
 16 19  4  0
 17 20  1  0
 18 21  4  0
 19 21  3  0
 21 23  3  0
M  END
$$$$

 Created by Python create_sdf_string function

 28 30  0  0  0  0  0  0  0  0999 V2000
    0.8617  -14.3002   15.9357 C   0  0  0  0  0  0  0  0  0  0  0  0
    0.5228   -4.6438   27.0497 N   0  0  0  0  0  0  0  0  0  0  0  0
    5.7370   -8.6849   18.6793 C   0  0  0  0  0  0  0  0  0  0  0  0
    4.1071  -11.0267   16.3073 C   0  0  0  0  0  0  0  0  0  0  0  0
    6.8168   -8.5147   16.5952 C   0  0  0  0  0  0  0  0  0  0  0  0
    2.7603   -5.9399   29.0311 C   0  0  0  0  0  0  0  0  0  0  0  0
    5.9967   -9.4277   16.0473 C   0  0  0  0  0  0  0  0  0  0  0  0
    4.8117   -9.6485   18.1201 C   0  0  0  0  0  0  0  0  0  0  0  0
    1.6585   -5.2613   27.2422 C   0  0  0  0  0  0  0  0  0  0  0  0
    2.9613  -11.5812   16.9796 C   0  0  0  0  0  0  0  0  0  0  0  0
   -0.8982   -3.0189   28.2380 C   0  0  0  0  0  0  0  0  0  0  0  0
    4.9241  -10.0526   16.8441 C   0  0  0  0  0  0  0  0  0  0  0  0
    2.2602  -12.6156   16.3584 C   0  0  0  0  0  0  0  0  0  0  0  0
   -2.0681   -3.4540   27.4916 C   0  0  0  0  0  0  0  0  0  0  0  0
    1.1417  -13.3281   16.8039 N   0  0  0  0  0  0  0  0  0  0  0  0
   -1.9331   -4.6140   26.6643 C   0  0  0  0  0  0  0  0  0  0  0  0
    0.4209   -3.3540   27.5333 C   0  0  0  0  0  0  0  0  0  0  0  0
    3.7677  -12.6805   14.5012 C   0  0  0  0  0  0  0  0  0  0  0  0
    4.2042   -3.9685   28.5917 O   0  0  0  0  0  0  0  0  0  0  0  0
    1.5293   -6.1065   28.5718 C   0  0  0  0  0  0  0  0  0  0  0  0
    4.4099  -11.5344   15.0405 C   0  0  0  0  0  0  0  0  0  0  0  0
    3.5098   -4.6522   29.3080 C   0  0  0  0  0  0  0  0  0  0  0  0
    1.8004  -14.2916   14.8633 N   0  0  0  0  0  0  0  0  0  0  0  0
    6.6995   -8.1284   17.9071 C   0  0  0  0  0  0  0  0  0  0  0  0
   -0.6473   -5.3946   26.8527 C   0  0  0  0  0  0  0  0  0  0  0  0
    3.4727   -4.3876   30.3983 O   0  0  0  0  0  0  0  0  0  0  0  0
    2.6726  -13.1704   15.1662 C   0  0  0  0  0  0  0  0  0  0  0  0
    2.6358   -5.6521   26.4246 C   0  0  0  0  0  0  0  0  0  0  0  0
  1 15  4  0
  1 23  4  0
  2  9  1  0
  2 17  1  0
  2 25  1  0
  3  8  4  0
  3 24  4  0
  4 10  4  0
  4 12  1  0
  4 21  4  0
  5  7  4  0
  5 24  4  0
  6 20  1  0
  6 22  1  0
  7 12  4  0
  8 12  4  0
  9 20  1  0
  9 28  1  0
 10 13  4  0
 11 14  1  0
 11 17  1  0
 13 15  4  0
 13 27  4  0
 14 16  1  0
 16 25  1  0
 18 21  4  0
 18 27  4  0
 19 22  1  0
 22 26  2  0
 23 27  4  0
M  END
$$$$

 Created by Python create_sdf_string function

 28 46  0  0  0  0  0  0  0  0999 V2000
    0.9792  -14.1475   16.0264 C   0  0  0  0  0  0  0  0  0  0  0  0
    0.4288   -4.5106   26.5662 N   0  0  0  0  0  0  0  0  0  0  0  0
    5.6596   -8.7744   18.6376 C   0  0  0  0  0  0  0  0  0  0  0  0
    7.2845   -8.6899   16.8396 C   0  0  0  0  0  0  0  0  0  0  0  0
    2.8502   -6.0426   28.4540 C   0  0  0  0  0  0  0  0  0  0  0  0
    6.1628   -9.6640   16.2501 C   0  0  0  0  0  0  0  0  0  0  0  0
    4.9400   -9.9250   18.2775 C   0  0  0  0  0  0  0  0  0  0  0  0
    1.4686   -5.2843   27.1999 C   0  0  0  0  0  0  0  0  0  0  0  0
    2.8595  -11.3821   16.9409 C   0  0  0  0  0  0  0  0  0  0  0  0
   -0.6792   -2.7439   28.2575 N   0  0  0  0  0  0  0  0  0  0  0  0
    4.9157   -9.9508   16.5731 C   0  0  0  0  0  0  0  0  0  0  0  0
    2.5179  -12.2474   16.3173 C   0  0  0  0  0  0  0  0  0  0  0  0
   -2.2542   -3.7885   27.0402 C   0  0  0  0  0  0  0  0  0  0  0  0
    0.7419  -13.5324   16.9356 N   0  0  0  0  0  0  0  0  0  0  0  0
    0.3328   -3.0964   27.4842 C   0  0  0  0  0  0  0  0  0  0  0  0
    3.6540  -12.5241   14.6108 C   0  0  0  0  0  0  0  0  0  0  0  0
    3.8743   -4.1494   28.6022 N   0  0  0  0  0  0  0  0  0  0  0  0
    4.6779  -11.2772   14.9705 C   0  0  0  0  0  0  0  0  0  0  0  0
    3.4737   -4.3481   29.1152 C   0  0  0  0  0  0  0  0  0  0  0  0
    1.6138  -14.7463   14.6368 N   0  0  0  0  0  0  0  0  0  0  0  0
   -0.7406   -5.2345   26.8760 C   0  0  0  0  0  0  0  0  0  0  0  0
    3.4058   -4.9325   30.3619 O   0  0  0  0  0  0  0  0  0  0  0  0
    2.8065   -5.4133   26.9549 C   0  0  0  0  0  0  0  0  0  0  0  0
    4.3937  -11.0836   16.7342 He  0  0  0  0  0  0  0  0  0  0  0  0
   -2.4032   -4.8238   26.4128 He  0  0  0  0  0  0  0  0  0  0  0  0
    1.6643   -6.0815   28.3153 He  0  0  0  0  0  0  0  0  0  0  0  0
    7.1804   -8.3402   17.6432 He  0  0  0  0  0  0  0  0  0  0  0  0
    2.3267  -12.7306   15.1412 He  0  0  0  0  0  0  0  0  0  0  0  0
  1  5  4  0
  1  9  1  0
  1 14  4  0
  1 16  3  0
  1 20  4  0
  1 21  1  0
  2  3  3  0
  2  8  1  0
  2 12  4  0
  2 14  4  0
  2 15  1  0
  2 19  2  0
  2 21  1  0
  3  7  1  0
  3 12  3  0
  3 14  4  0
  3 15  2  0
  4  6  1  0
  4 13  2  0
  5 11  4  0
  5 19  1  0
  5 21  2  0
  7  9  3  0
  7 11  3  0
  8  9  3  0
  8 10  1  0
  8 11  2  0
  8 23  1  0
  9 11  2  0
  9 12  4  0
  9 14  1  0
  9 21  4  0
 10 11  1  0
 10 15  1  0
 10 20  3  0
 10 22  1  0
 11 12  1  0
 11 22  2  0
 12 14  4  0
 12 23  1  0
 16 18  2  0
 17 19  1  0
 18 19  2  0
 19 22  2  0
 20 23  3  0
 21 22  2  0
M  END
$$$$

 Created by Python create_sdf_string function

 28 30  0  0  0  0  0  0  0  0999 V2000
    0.8866  -14.1725   15.9120 C   0  0  0  0  0  0  0  0  0  0  0  0
    0.4383   -4.6183   26.8404 N   0  0  0  0  0  0  0  0  0  0  0  0
    5.8920   -8.6920   18.6274 C   0  0  0  0  0  0  0  0  0  0  0  0
    4.1979  -11.0592   16.2969 C   0  0  0  0  0  0  0  0  0  0  0  0
    7.1167   -8.8277   16.6399 C   0  0  0  0  0  0  0  0  0  0  0  0
    2.9593   -6.0808   28.7271 C   0  0  0  0  0  0  0  0  0  0  0  0
    6.2855   -9.6613   16.1347 C   0  0  0  0  0  0  0  0  0  0  0  0
    4.9627   -9.6597   18.1194 C   0  0  0  0  0  0  0  0  0  0  0  0
    1.5655   -5.2403   27.0572 C   0  0  0  0  0  0  0  0  0  0  0  0
    3.0352  -11.4964   16.9755 C   0  0  0  0  0  0  0  0  0  0  0  0
   -0.9784   -2.8857   27.9020 C   0  0  0  0  0  0  0  0  0  0  0  0
    5.1209  -10.1174   16.8870 C   0  0  0  0  0  0  0  0  0  0  0  0
    2.2867  -12.5347   16.3922 C   0  0  0  0  0  0  0  0  0  0  0  0
   -2.1313   -3.4295   27.2491 C   0  0  0  0  0  0  0  0  0  0  0  0
    1.1344  -13.2384   16.8012 N   0  0  0  0  0  0  0  0  0  0  0  0
   -1.9802   -4.6644   26.5317 C   0  0  0  0  0  0  0  0  0  0  0  0
    0.3111   -3.3069   27.3565 C   0  0  0  0  0  0  0  0  0  0  0  0
    3.6425  -12.6164   14.4728 C   0  0  0  0  0  0  0  0  0  0  0  0
    3.9710   -3.9864   28.6336 N   0  0  0  0  0  0  0  0  0  0  0  0
    1.6280   -5.9872   28.3198 C   0  0  0  0  0  0  0  0  0  0  0  0
    4.4594  -11.5803   15.0425 C   0  0  0  0  0  0  0  0  0  0  0  0
    3.4477   -4.8554   29.2785 C   0  0  0  0  0  0  0  0  0  0  0  0
    1.7414  -14.1446   14.9066 N   0  0  0  0  0  0  0  0  0  0  0  0
    6.9174   -8.2862   17.8634 C   0  0  0  0  0  0  0  0  0  0  0  0
   -0.6925   -5.3977   26.8166 C   0  0  0  0  0  0  0  0  0  0  0  0
    3.3440   -4.7684   30.4169 O   0  0  0  0  0  0  0  0  0  0  0  0
    2.6287  -13.0875   15.1943 C   0  0  0  0  0  0  0  0  0  0  0  0
    2.7490   -5.2742   26.6573 C   0  0  0  0  0  0  0  0  0  0  0  0
  1 15  4  0
  1 23  4  0
  2  9  1  0
  2 17  1  0
  2 25  1  0
  3  8  1  0
  3 24  4  0
  4 10  4  0
  4 12  1  0
  4 21  4  0
  5  7  4  0
  5 24  4  0
  6 20  1  0
  6 22  1  0
  7 12  4  0
  8 12  4  0
  9 20  1  0
  9 28  1  0
 10 13  4  0
 11 14  1  0
 11 17  1  0
 13 15  4  0
 13 27  4  0
 14 16  1  0
 16 25  1  0
 18 21  4  0
 18 27  4  0
 19 22  1  0
 22 26  2  0
 23 27  4  0
M  END
$$$$

 Created by Python create_sdf_string function

 28 55  0  0  0  0  0  0  0  0999 V2000
    0.2648   -4.6720   27.0872 N   0  0  0  0  0  0  0  0  0  0  0  0
    5.8291   -8.7369   18.7073 C   0  0  0  0  0  0  0  0  0  0  0  0
    4.0750  -10.9354   16.4636 C   0  0  0  0  0  0  0  0  0  0  0  0
    7.2363   -8.9143   16.5759 C   0  0  0  0  0  0  0  0  0  0  0  0
    3.1405   -6.4062   29.2799 C   0  0  0  0  0  0  0  0  0  0  0  0
    6.3361  -10.0748   15.8599 C   0  0  0  0  0  0  0  0  0  0  0  0
    4.9984   -9.3819   18.3797 C   0  0  0  0  0  0  0  0  0  0  0  0
    3.1232  -11.4989   16.7481 C   0  0  0  0  0  0  0  0  0  0  0  0
   -0.4426   -2.9637   27.9530 C   0  0  0  0  0  0  0  0  0  0  0  0
    5.1041  -10.0224   17.0893 C   0  0  0  0  0  0  0  0  0  0  0  0
    2.3656  -12.8796   16.6962 C   0  0  0  0  0  0  0  0  0  0  0  0
   -2.2550   -3.4186   27.1750 C   0  0  0  0  0  0  0  0  0  0  0  0
    0.8782  -13.4366   16.7396 N   0  0  0  0  0  0  0  0  0  0  0  0
   -1.9079   -4.3779   27.0224 O   0  0  0  0  0  0  0  0  0  0  0  0
    0.6829   -3.1162   27.2977 C   0  0  0  0  0  0  0  0  0  0  0  0
    3.7160  -12.6418   14.2593 C   0  0  0  0  0  0  0  0  0  0  0  0
    4.2254   -4.0728   28.5190 N   0  0  0  0  0  0  0  0  0  0  0  0
    1.6608   -5.9310   28.3251 C   0  0  0  0  0  0  0  0  0  0  0  0
    4.4592  -11.3936   15.1166 C   0  0  0  0  0  0  0  0  0  0  0  0
    3.1978   -4.8004   29.3461 C   0  0  0  0  0  0  0  0  0  0  0  0
    1.9067  -14.1890   14.8321 N   0  0  0  0  0  0  0  0  0  0  0  0
    6.7523   -8.1578   18.2187 C   0  0  0  0  0  0  0  0  0  0  0  0
   -1.2781   -5.5523   26.9592 C   0  0  0  0  0  0  0  0  0  0  0  0
    3.5536   -4.6065   30.0748 O   0  0  0  0  0  0  0  0  0  0  0  0
    2.5724  -12.9365   15.1635 C   0  0  0  0  0  0  0  0  0  0  0  0
    3.0608   -4.9596   26.5201 C   0  0  0  0  0  0  0  0  0  0  0  0
    0.6470  -13.6951   16.0752 He  0  0  0  0  0  0  0  0  0  0  0  0
    1.4981   -5.3472   27.3766 He  0  0  0  0  0  0  0  0  0  0  0  0
  1  2  3  0
  1  8  3  0
  1 12  1  0
  1 13  4  0
  1 15  4  0
  1 23  1  0
  2  7  1  0
  2 10  4  0
  2 22  4  0
  3  8  4  0
  3 10  1  0
  3 11  2  0
  3 18  2  0
  3 19  1  0
  3 23  4  0
  4  6  4  0
  4 11  3  0
  4 15  3  0
  4 22  4  0
  5 18  1  0
  5 20  1  0
  6 10  4  0
  6 24  2  0
  7 10  4  0
  7 17  2  0
  8 11  4  0
  8 20  3  0
  8 22  4  0
  8 23  4  0
  9 12  1  0
  9 15  1  0
  9 20  1  0
 10 12  3  0
 10 13  2  0
 10 18  3  0
 11 13  4  0
 11 15  3  0
 11 25  4  0
 12 18  2  0
 12 24  4  0
 14 18  2  0
 14 23  1  0
 14 24  1  0
 14 26  2  0
 15 20  1  0
 16 19  4  0
 16 25  4  0
 16 26  4  0
 17 20  1  0
 18 21  1  0
 20 24  2  0
 21 23  1  0
 21 25  4  0
 21 26  3  0
 23 25  4  0
M  END
$$$$

 Created by Python create_sdf_string function

 28 30  0  0  0  0  0  0  0  0999 V2000
    0.7968  -14.0535   15.8929 C   0  0  0  0  0  0  0  0  0  0  0  0
    0.4570   -4.7066   26.9840 N   0  0  0  0  0  0  0  0  0  0  0  0
    5.8144   -8.6501   18.6525 C   0  0  0  0  0  0  0  0  0  0  0  0
    4.2470  -11.0904   16.3417 C   0  0  0  0  0  0  0  0  0  0  0  0
    7.1788   -8.8469   16.7713 C   0  0  0  0  0  0  0  0  0  0  0  0
    3.0177   -6.2054   29.0828 C   0  0  0  0  0  0  0  0  0  0  0  0
    6.3433   -9.7605   16.2078 C   0  0  0  0  0  0  0  0  0  0  0  0
    4.9096   -9.6306   18.1280 C   0  0  0  0  0  0  0  0  0  0  0  0
    1.6155   -5.3716   27.2031 C   0  0  0  0  0  0  0  0  0  0  0  0
    3.1151  -11.6057   17.0301 C   0  0  0  0  0  0  0  0  0  0  0  0
   -0.7717   -2.7393   27.9010 C   0  0  0  0  0  0  0  0  0  0  0  0
    5.1257  -10.1828   16.8992 C   0  0  0  0  0  0  0  0  0  0  0  0
    2.2936  -12.5493   16.4347 C   0  0  0  0  0  0  0  0  0  0  0  0
   -2.0208   -3.2590   27.2863 C   0  0  0  0  0  0  0  0  0  0  0  0
    1.1384  -13.1793   16.8343 N   0  0  0  0  0  0  0  0  0  0  0  0
   -2.0158   -4.6276   26.8909 C   0  0  0  0  0  0  0  0  0  0  0  0
    0.4408   -3.2969   27.2566 C   0  0  0  0  0  0  0  0  0  0  0  0
    3.6723  -12.6249   14.4743 C   0  0  0  0  0  0  0  0  0  0  0  0
    4.1643   -4.1786   28.4544 N   0  0  0  0  0  0  0  0  0  0  0  0
    1.7052   -6.0769   28.4827 C   0  0  0  0  0  0  0  0  0  0  0  0
    4.4475  -11.5613   15.0214 C   0  0  0  0  0  0  0  0  0  0  0  0
    3.5787   -4.8678   29.3209 C   0  0  0  0  0  0  0  0  0  0  0  0
    1.6664  -14.0092   14.8484 N   0  0  0  0  0  0  0  0  0  0  0  0
    6.9132   -8.2739   17.9799 C   0  0  0  0  0  0  0  0  0  0  0  0
   -0.7533   -5.3689   27.0875 C   0  0  0  0  0  0  0  0  0  0  0  0
    3.4989   -4.4613   30.3859 O   0  0  0  0  0  0  0  0  0  0  0  0
    2.6057  -13.0612   15.1884 C   0  0  0  0  0  0  0  0  0  0  0  0
    2.6742   -5.0371   26.5227 C   0  0  0  0  0  0  0  0  0  0  0  0
  1 15  4  0
  1 23  4  0
  2  9  1  0
  2 17  1  0
  2 25  1  0
  3  8  4  0
  3 24  4  0
  4 10  4  0
  4 12  1  0
  4 21  4  0
  5  7  4  0
  5 24  4  0
  6 20  1  0
  6 22  1  0
  7 12  4  0
  8 12  4  0
  9 20  1  0
  9 28  1  0
 10 13  4  0
 11 14  1  0
 11 17  1  0
 13 15  4  0
 13 27  4  0
 14 16  1  0
 16 25  1  0
 18 21  4  0
 18 27  4  0
 19 22  1  0
 22 26  2  0
 23 27  4  0
M  END
$$$$

 Created by Python create_sdf_string function

 28 50  0  0  0  0  0  0  0  0999 V2000
    0.8076  -13.8668   15.8805 C   0  0  0  0  0  0  0  0  0  0  0  0
    0.5273   -4.3825   27.0984 B   0  0  0  0  0  0  0  0  0  0  0  0
    6.1218   -8.5647   19.0535 C   0  0  0  0  0  0  0  0  0  0  0  0
    3.9774  -11.2939   15.8581 C   0  0  0  0  0  0  0  0  0  0  0  0
    7.2092   -8.6254   16.8233 C   0  0  0  0  0  0  0  0  0  0  0  0
    3.0729   -6.1823   29.3690 C   0  0  0  0  0  0  0  0  0  0  0  0
    6.1982   -9.9078   16.3809 C   0  0  0  0  0  0  0  0  0  0  0  0
    4.4251   -9.8916   18.2931 C   0  0  0  0  0  0  0  0  0  0  0  0
    3.5498  -11.3408   16.9772 C   0  0  0  0  0  0  0  0  0  0  0  0
   -0.6292   -2.6693   27.8419 C   0  0  0  0  0  0  0  0  0  0  0  0
    5.1081  -10.1688   16.9144 C   0  0  0  0  0  0  0  0  0  0  0  0
    1.8816  -12.8026   16.4932 C   0  0  0  0  0  0  0  0  0  0  0  0
   -2.2276   -3.0150   27.1281 C   0  0  0  0  0  0  0  0  0  0  0  0
    1.3739  -13.5401   17.0946 N   0  0  0  0  0  0  0  0  0  0  0  0
   -1.7844   -4.8367   27.0439 P   0  0  0  0  0  0  0  0  0  0  0  0
    0.3733   -3.2108   26.9455 B   0  0  0  0  0  0  0  0  0  0  0  0
    4.1397  -12.8707   14.1230 C   0  0  0  0  0  0  0  0  0  0  0  0
    4.5204   -4.2280   28.8134 N   0  0  0  0  0  0  0  0  0  0  0  0
    5.0492  -11.3555   14.9846 C   0  0  0  0  0  0  0  0  0  0  0  0
    3.7250   -4.9820   29.4537 C   0  0  0  0  0  0  0  0  0  0  0  0
    1.4526  -13.6588   14.9848 Se  0  0  0  0  0  0  0  0  0  0  0  0
    7.1424   -8.3677   17.5088 C   0  0  0  0  0  0  0  0  0  0  0  0
   -0.7656   -5.3168   26.9467 C   0  0  0  0  0  0  0  0  0  0  0  0
    3.7998   -4.6108   30.7727 O   0  0  0  0  0  0  0  0  0  0  0  0
    2.5065  -12.8868   15.1646 C   0  0  0  0  0  0  0  0  0  0  0  0
    2.2719   -4.9487   26.7197 C   0  0  0  0  0  0  0  0  0  0  0  0
    1.5691   -5.0657   27.2143 He  0  0  0  0  0  0  0  0  0  0  0  0
    1.9069   -6.0664   28.2874 He  0  0  0  0  0  0  0  0  0  0  0  0
  1  3  3  0
  1 14  4  0
  1 21  4  0
  2 16  1  0
  2 23  2  0
  3  8  4  0
  3 18  3  0
  3 22  4  0
  4  9  3  0
  4 11  1  0
  4 13  4  0
  4 19  4  0
  4 23  1  0
  5  7  1  0
  5  8  1  0
  5 22  4  0
  6 10  2  0
  6 14  3  0
  6 20  1  0
  6 22  3  0
  7 11  4  0
  7 19  1  0
  7 25  2  0
  8 11  4  0
  8 22  3  0
  8 26  4  0
  9 12  4  0
  9 25  1  0
 10 13  1  0
 10 16  1  0
 11 12  1  0
 11 25  2  0
 12 14  4  0
 12 25  4  0
 13 15  1  0
 13 17  2  0
 13 25  2  0
 14 15  2  0
 14 22  1  0
 15 18  3  0
 15 19  4  0
 15 23  1  0
 17 25  4  0
 18 20  1  0
 19 20  3  0
 19 22  1  0
 19 24  4  0
 20 24  2  0
 21 22  2  0
 21 25  4  0
M  END
$$$$

 Created by Python create_sdf_string function

 28 30  0  0  0  0  0  0  0  0999 V2000
    0.7697  -13.9896   15.9202 C   0  0  0  0  0  0  0  0  0  0  0  0
    0.4237   -4.5406   27.1425 N   0  0  0  0  0  0  0  0  0  0  0  0
    5.8754   -8.7082   18.6720 C   0  0  0  0  0  0  0  0  0  0  0  0
    4.4047  -11.1286   16.3008 C   0  0  0  0  0  0  0  0  0  0  0  0
    7.2153   -8.7748   16.7601 C   0  0  0  0  0  0  0  0  0  0  0  0
    3.0057   -6.2113   29.1331 C   0  0  0  0  0  0  0  0  0  0  0  0
    6.3722   -9.7071   16.1583 C   0  0  0  0  0  0  0  0  0  0  0  0
    5.0070   -9.6924   18.1231 C   0  0  0  0  0  0  0  0  0  0  0  0
    1.7058   -5.0744   27.4061 C   0  0  0  0  0  0  0  0  0  0  0  0
    3.2749  -11.6107   16.9558 C   0  0  0  0  0  0  0  0  0  0  0  0
   -0.8225   -2.6114   27.6598 C   0  0  0  0  0  0  0  0  0  0  0  0
    5.2147  -10.2070   16.8638 C   0  0  0  0  0  0  0  0  0  0  0  0
    2.4085  -12.6014   16.3902 C   0  0  0  0  0  0  0  0  0  0  0  0
   -2.0317   -3.2778   27.1733 C   0  0  0  0  0  0  0  0  0  0  0  0
    1.2816  -13.2395   16.9019 N   0  0  0  0  0  0  0  0  0  0  0  0
   -1.9951   -4.6719   26.9583 C   0  0  0  0  0  0  0  0  0  0  0  0
    0.3396   -3.1151   27.0556 C   0  0  0  0  0  0  0  0  0  0  0  0
    3.7013  -12.6172   14.3946 C   0  0  0  0  0  0  0  0  0  0  0  0
    4.4402   -4.3367   28.7349 N   0  0  0  0  0  0  0  0  0  0  0  0
    1.8321   -5.9665   28.4077 N   0  0  0  0  0  0  0  0  0  0  0  0
    4.6154  -11.6717   15.0127 C   0  0  0  0  0  0  0  0  0  0  0  0
    3.7505   -4.9522   29.5288 C   0  0  0  0  0  0  0  0  0  0  0  0
    1.5582  -13.9042   14.7910 N   0  0  0  0  0  0  0  0  0  0  0  0
    6.9437   -8.2737   17.9827 C   0  0  0  0  0  0  0  0  0  0  0  0
   -0.6704   -5.2991   27.0369 C   0  0  0  0  0  0  0  0  0  0  0  0
    3.7069   -4.6749   30.6681 O   0  0  0  0  0  0  0  0  0  0  0  0
    2.6272  -13.0394   15.1087 C   0  0  0  0  0  0  0  0  0  0  0  0
    2.5983   -4.8377   26.5894 C   0  0  0  0  0  0  0  0  0  0  0  0
  1 15  4  0
  1 23  4  0
  2  9  1  0
  2 17  1  0
  2 25  1  0
  3  8  4  0
  3 24  4  0
  4 10  4  0
  4 12  1  0
  4 21  4  0
  5  7  4  0
  5 24  4  0
  6 20  1  0
  6 22  1  0
  7 12  4  0
  8 12  4  0
  9 20  1  0
  9 28  2  0
 10 13  4  0
 11 14  1  0
 11 17  1  0
 13 15  4  0
 13 27  4  0
 14 16  1  0
 16 25  1  0
 18 21  4  0
 18 27  4  0
 19 22  1  0
 22 26  2  0
 23 27  4  0
M  END
$$$$

 Created by Python create_sdf_string function

 28 36  0  0  0  0  0  0  0  0999 V2000
    0.9869  -14.1766   16.0248 C   0  0  0  0  0  0  0  0  0  0  0  0
    0.6763   -4.7810   27.0735 N   0  0  0  0  0  0  0  0  0  0  0  0
    6.1841   -9.2047   18.4893 C   0  0  0  0  0  0  0  0  0  0  0  0
    4.1285  -11.2338   16.3838 C   0  0  0  0  0  0  0  0  0  0  0  0
    6.9283   -9.1059   16.8713 C   0  0  0  0  0  0  0  0  0  0  0  0
    6.5364   -9.5419   16.1859 C   0  0  0  0  0  0  0  0  0  0  0  0
    5.3277  -10.0556   18.2035 C   0  0  0  0  0  0  0  0  0  0  0  0
    1.6019   -5.1444   27.7295 C   0  0  0  0  0  0  0  0  0  0  0  0
    3.4540  -11.6125   16.7084 S   0  0  0  0  0  0  0  0  0  0  0  0
   -0.4394   -2.5668   27.7873 C   0  0  0  0  0  0  0  0  0  0  0  0
    5.1896   -9.8994   16.7974 C   0  0  0  0  0  0  0  0  0  0  0  0
    2.3942  -12.1988   16.4544 C   0  0  0  0  0  0  0  0  0  0  0  0
    1.1800  -13.5803   16.7832 N   0  0  0  0  0  0  0  0  0  0  0  0
   -1.8501   -4.8449   26.7070 C   0  0  0  0  0  0  0  0  0  0  0  0
    0.3956   -3.3872   26.6758 C   0  0  0  0  0  0  0  0  0  0  0  0
    3.6333  -12.6591   14.4853 C   0  0  0  0  0  0  0  0  0  0  0  0
    5.0075   -4.4438   28.8827 N   0  0  0  0  0  0  0  0  0  0  0  0
    2.0743   -5.6791   28.2774 N   0  0  0  0  0  0  0  0  0  0  0  0
    4.5514  -12.0164   15.1946 C   0  0  0  0  0  0  0  0  0  0  0  0
    1.6649  -14.1059   14.8829 N   0  0  0  0  0  0  0  0  0  0  0  0
    6.8555   -8.3890   18.3061 C   0  0  0  0  0  0  0  0  0  0  0  0
   -0.8999   -5.0644   26.9770 C   0  0  0  0  0  0  0  0  0  0  0  0
    4.1098   -4.6079   30.6246 O   0  0  0  0  0  0  0  0  0  0  0  0
    2.3117  -13.2575   15.0538 C   0  0  0  0  0  0  0  0  0  0  0  0
    2.9924   -6.4086   29.1037 He  0  0  0  0  0  0  0  0  0  0  0  0
   -1.8089   -3.7560   27.1416 He  0  0  0  0  0  0  0  0  0  0  0  0
    3.7129   -5.2239   29.5445 He  0  0  0  0  0  0  0  0  0  0  0  0
    2.7005   -5.0107   26.2997 He  0  0  0  0  0  0  0  0  0  0  0  0
  1  3  1  0
  1  7  2  0
  1 13  4  0
  1 20  4  0
  2  8  2  0
  2 15  1  0
  3  7  4  0
  4  8  3  0
  4  9  4  0
  4 18  1  0
  4 19  4  0
  5  6  4  0
  5 21  4  0
  6  8  4  0
  6  9  1  0
  6 11  4  0
  6 12  2  0
  6 18  1  0
  7  8  3  0
  7 11  4  0
  7 17  2  0
  8  9  4  0
  8 14  4  0
  8 18  1  0
  8 23  1  0
  9 12  4  0
 10 15  1  0
 11 14  2  0
 12 13  4  0
 12 24  4  0
 13 20  1  0
 14 22  1  0
 15 16  4  0
 16 19  4  0
 16 24  4  0
 20 24  4  0
M  END
$$$$

 Created by Python create_sdf_string function

 28 30  0  0  0  0  0  0  0  0999 V2000
    0.8656  -14.1732   15.9365 C   0  0  0  0  0  0  0  0  0  0  0  0
    0.5540   -4.6844   27.0632 N   0  0  0  0  0  0  0  0  0  0  0  0
    5.9700   -8.9762   18.7913 C   0  0  0  0  0  0  0  0  0  0  0  0
    4.3779  -11.1920   16.2864 C   0  0  0  0  0  0  0  0  0  0  0  0
    7.1363   -8.7827   16.7456 C   0  0  0  0  0  0  0  0  0  0  0  0
    3.1415   -6.1703   29.0464 C   0  0  0  0  0  0  0  0  0  0  0  0
    6.3254   -9.6800   16.1613 C   0  0  0  0  0  0  0  0  0  0  0  0
    5.0901   -9.9476   18.1965 C   0  0  0  0  0  0  0  0  0  0  0  0
    1.7657   -5.1713   27.3032 C   0  0  0  0  0  0  0  0  0  0  0  0
    3.1935  -11.5919   16.9757 C   0  0  0  0  0  0  0  0  0  0  0  0
   -0.7074   -2.7487   27.5736 C   0  0  0  0  0  0  0  0  0  0  0  0
    5.2312  -10.3224   16.8890 C   0  0  0  0  0  0  0  0  0  0  0  0
    2.4104  -12.6254   16.4035 C   0  0  0  0  0  0  0  0  0  0  0  0
   -1.9830   -3.4020   27.2533 O   0  0  0  0  0  0  0  0  0  0  0  0
    1.2526  -13.2851   16.8801 N   0  0  0  0  0  0  0  0  0  0  0  0
   -1.8666   -4.7266   26.6996 C   0  0  0  0  0  0  0  0  0  0  0  0
    0.4216   -3.2571   26.7496 C   0  0  0  0  0  0  0  0  0  0  0  0
    3.7378  -12.7154   14.4242 C   0  0  0  0  0  0  0  0  0  0  0  0
    4.8485   -4.5947   28.7568 N   0  0  0  0  0  0  0  0  0  0  0  0
    1.8778   -5.8676   28.5304 N   0  0  0  0  0  0  0  0  0  0  0  0
    4.5730  -11.7354   15.0132 C   0  0  0  0  0  0  0  0  0  0  0  0
    3.9923   -5.0954   29.5347 C   0  0  0  0  0  0  0  0  0  0  0  0
    1.6554  -14.1143   14.8572 N   0  0  0  0  0  0  0  0  0  0  0  0
    7.0065   -8.4287   18.0582 C   0  0  0  0  0  0  0  0  0  0  0  0
   -0.6044   -5.4190   27.0700 C   0  0  0  0  0  0  0  0  0  0  0  0
    3.8883   -4.7915   30.6797 O   0  0  0  0  0  0  0  0  0  0  0  0
    2.6598  -13.1590   15.1611 C   0  0  0  0  0  0  0  0  0  0  0  0
    2.7069   -4.9921   26.5142 O   0  0  0  0  0  0  0  0  0  0  0  0
  1 15  4  0
  1 23  4  0
  2  9  1  0
  2 17  1  0
  2 25  1  0
  3  8  4  0
  3 24  4  0
  4 10  4  0
  4 12  1  0
  4 21  4  0
  5  7  4  0
  5 24  4  0
  6 20  1  0
  6 22  1  0
  7 12  4  0
  8 12  4  0
  9 20  1  0
  9 28  2  0
 10 13  4  0
 11 14  1  0
 11 17  1  0
 13 15  4  0
 13 27  4  0
 14 16  1  0
 16 25  1  0
 18 21  4  0
 18 27  4  0
 19 22  1  0
 22 26  2  0
 23 27  4  0
M  END
$$$$

 Created by Python create_sdf_string function

 28 66  0  0  0  0  0  0  0  0999 V2000
    0.7888  -14.2270   15.8613 C   0  0  0  0  0  0  0  0  0  0  0  0
    0.2215   -4.7064   27.2815 N   0  0  0  0  0  0  0  0  0  0  0  0
    5.5668   -9.2615   18.8924 C   0  0  0  0  0  0  0  0  0  0  0  0
    4.1976  -11.2661   16.2772 C   0  0  0  0  0  0  0  0  0  0  0  0
    6.9846   -9.0750   16.8743 C   0  0  0  0  0  0  0  0  0  0  0  0
    3.1276   -6.0801   28.7657 C   0  0  0  0  0  0  0  0  0  0  0  0
    6.5562   -9.7149   16.2158 C   0  0  0  0  0  0  0  0  0  0  0  0
    4.8853  -10.1531   18.2469 C   0  0  0  0  0  0  0  0  0  0  0  0
    1.6373   -5.5171   27.2081 C   0  0  0  0  0  0  0  0  0  0  0  0
    3.1263  -11.4512   16.8896 N   0  0  0  0  0  0  0  0  0  0  0  0
   -0.5033   -2.6913   27.4355 C   0  0  0  0  0  0  0  0  0  0  0  0
    5.1786  -10.6628   16.6233 C   0  0  0  0  0  0  0  0  0  0  0  0
    2.4140  -12.7951   16.4990 C   0  0  0  0  0  0  0  0  0  0  0  0
   -1.9637   -3.2425   27.2625 O   0  0  0  0  0  0  0  0  0  0  0  0
    0.8270  -13.6190   16.7583 N   0  0  0  0  0  0  0  0  0  0  0  0
   -2.0956   -4.5488   26.3201 C   0  0  0  0  0  0  0  0  0  0  0  0
    0.3381   -3.2253   26.8045 C   0  0  0  0  0  0  0  0  0  0  0  0
    4.0709  -12.9011   14.4860 C   0  0  0  0  0  0  0  0  0  0  0  0
    4.9209   -4.6635   29.1022 C   0  0  0  0  0  0  0  0  0  0  0  0
    2.0693   -6.0573   28.7434 O   0  0  0  0  0  0  0  0  0  0  0  0
    4.7201  -11.8502   14.7233 C   0  0  0  0  0  0  0  0  0  0  0  0
    4.0268   -5.0895   29.4271 C   0  0  0  0  0  0  0  0  0  0  0  0
    1.3782  -14.3960   14.8980 N   0  0  0  0  0  0  0  0  0  0  0  0
    6.9323   -8.0828   18.1780 P   0  0  0  0  0  0  0  0  0  0  0  0
   -0.8355   -5.4329   26.9063 C   0  0  0  0  0  0  0  0  0  0  0  0
    3.8051   -4.8265   30.7369 O   0  0  0  0  0  0  0  0  0  0  0  0
    2.5575  -12.9276   15.2024 C   0  0  0  0  0  0  0  0  0  0  0  0
    3.1858   -5.2290   26.2601 O   0  0  0  0  0  0  0  0  0  0  0  0
  1 15  4  0
  1 23  4  0
  1 26  2  0
  2  9  2  0
  2 10  2  0
  2 13  3  0
  2 17  1  0
  2 25  1  0
  3  6  4  0
  3  7  2  0
  3  8  4  0
  3 12  3  0
  3 24  4  0
  3 28  1  0
  4 10  4  0
  4 13  2  0
  4 21  4  0
  4 22  2  0
  4 27  1  0
  4 28  3  0
  5  7  4  0
  5  8  3  0
  5 15  1  0
  5 17  4  0
  5 24  4  0
  6 14  2  0
  6 20  1  0
  6 22  1  0
  7 12  4  0
  7 17  1  0
  7 21  1  0
  7 28  1  0
  8 12  4  0
  8 17  4  0
  8 18  4  0
  8 27  1  0
  9 14  4  0
  9 20  1  0
  9 28  2  0
 10 13  4  0
 11 14  1  0
 11 17  1  0
 12 21  3  0
 12 22  4  0
 12 25  3  0
 12 26  1  0
 13 27  4  0
 14 16  1  0
 14 17  3  0
 14 21  1  0
 14 28  4  0
 15 17  3  0
 16 25  1  0
 17 19  4  0
 18 19  2  0
 18 21  4  0
 18 22  3  0
 18 27  4  0
 19 22  1  0
 19 23  3  0
 20 26  4  0
 20 27  1  0
 22 26  2  0
 23 27  4  0
 24 28  1  0
 26 27  2  0
M  END
$$$$

 Created by Python create_sdf_string function

 28 30  0  0  0  0  0  0  0  0999 V2000
    0.7731  -14.2176   15.8639 C   0  0  0  0  0  0  0  0  0  0  0  0
    0.4639   -4.7567   27.1353 N   0  0  0  0  0  0  0  0  0  0  0  0
    5.7288   -9.0269   18.7706 C   0  0  0  0  0  0  0  0  0  0  0  0
    4.3339  -11.3250   16.2286 C   0  0  0  0  0  0  0  0  0  0  0  0
    7.0907   -8.8899   16.8263 C   0  0  0  0  0  0  0  0  0  0  0  0
    3.2961   -6.1730   28.8642 C   0  0  0  0  0  0  0  0  0  0  0  0
    6.3394   -9.8406   16.2182 C   0  0  0  0  0  0  0  0  0  0  0  0
    4.8908  -10.0079   18.1497 C   0  0  0  0  0  0  0  0  0  0  0  0
    1.6833   -5.3257   27.2679 C   0  0  0  0  0  0  0  0  0  0  0  0
    3.1626  -11.7160   16.8931 N   0  0  0  0  0  0  0  0  0  0  0  0
   -0.7011   -2.6905   27.4404 C   0  0  0  0  0  0  0  0  0  0  0  0
    5.1620  -10.4055   16.8637 C   0  0  0  0  0  0  0  0  0  0  0  0
    2.3610  -12.6819   16.3335 C   0  0  0  0  0  0  0  0  0  0  0  0
   -1.9792   -3.3093   27.1798 O   0  0  0  0  0  0  0  0  0  0  0  0
    1.1436  -13.3042   16.7722 N   0  0  0  0  0  0  0  0  0  0  0  0
   -1.8790   -4.5565   26.4475 C   0  0  0  0  0  0  0  0  0  0  0  0
    0.4505   -3.3184   26.8045 C   0  0  0  0  0  0  0  0  0  0  0  0
    3.7402  -12.8707   14.3752 C   0  0  0  0  0  0  0  0  0  0  0  0
    5.0509   -4.5974   28.9695 O   0  0  0  0  0  0  0  0  0  0  0  0
    1.9746   -5.9210   28.5820 C   0  0  0  0  0  0  0  0  0  0  0  0
    4.6077  -11.8827   14.9689 C   0  0  0  0  0  0  0  0  0  0  0  0
    4.0057   -5.1167   29.5606 C   0  0  0  0  0  0  0  0  0  0  0  0
    1.6550  -14.2434   14.8444 N   0  0  0  0  0  0  0  0  0  0  0  0
    6.7904   -8.4436   18.0863 C   0  0  0  0  0  0  0  0  0  0  0  0
   -0.7390   -5.4039   26.9830 C   0  0  0  0  0  0  0  0  0  0  0  0
    3.6461   -4.8641   30.6175 O   0  0  0  0  0  0  0  0  0  0  0  0
    2.6494  -13.2644   15.1264 C   0  0  0  0  0  0  0  0  0  0  0  0
    2.6301   -5.2516   26.4547 O   0  0  0  0  0  0  0  0  0  0  0  0
  1 15  4  0
  1 23  4  0
  2  9  1  0
  2 17  1  0
  2 25  1  0
  3  8  4  0
  3 24  4  0
  4 10  4  0
  4 12  1  0
  4 21  4  0
  5  7  4  0
  5 24  4  0
  6 20  1  0
  6 22  1  0
  7 12  4  0
  8 12  4  0
  9 20  1  0
  9 28  2  0
 10 13  4  0
 11 14  1  0
 11 17  1  0
 13 15  4  0
 13 27  4  0
 14 16  1  0
 16 25  1  0
 18 21  4  0
 18 27  4  0
 19 22  1  0
 22 26  2  0
 23 27  4  0
M  END
$$$$

 Created by Python create_sdf_string function

 28 49  0  0  0  0  0  0  0  0999 V2000
    0.3928  -14.5178   15.9494 F   0  0  0  0  0  0  0  0  0  0  0  0
    0.8628   -4.5854   27.0141 N   0  0  0  0  0  0  0  0  0  0  0  0
    5.6302   -8.9387   18.5707 S   0  0  0  0  0  0  0  0  0  0  0  0
    4.5147  -11.5088   16.2424 C   0  0  0  0  0  0  0  0  0  0  0  0
    7.1027   -9.3131   16.9209 C   0  0  0  0  0  0  0  0  0  0  0  0
    3.2958   -6.1919   28.6362 C   0  0  0  0  0  0  0  0  0  0  0  0
    6.3175   -9.9880   16.1482 C   0  0  0  0  0  0  0  0  0  0  0  0
    5.2183   -9.9489   18.1566 C   0  0  0  0  0  0  0  0  0  0  0  0
    1.9698   -5.4637   26.9979 C   0  0  0  0  0  0  0  0  0  0  0  0
    2.9728  -11.2904   16.7286 N   0  0  0  0  0  0  0  0  0  0  0  0
   -0.1702   -2.6922   27.3632 C   0  0  0  0  0  0  0  0  0  0  0  0
    5.4173  -10.3965   16.5831 C   0  0  0  0  0  0  0  0  0  0  0  0
    2.3396  -12.6921   16.6425 C   0  0  0  0  0  0  0  0  0  0  0  0
   -1.8661   -3.7066   27.0943 C   0  0  0  0  0  0  0  0  0  0  0  0
    1.2977  -13.1562   17.1270 N   0  0  0  0  0  0  0  0  0  0  0  0
   -1.7966   -4.6289   26.2517 N   0  0  0  0  0  0  0  0  0  0  0  0
    0.6047   -3.5093   26.6375 C   0  0  0  0  0  0  0  0  0  0  0  0
    3.7139  -12.8958   14.0403 C   0  0  0  0  0  0  0  0  0  0  0  0
    5.0743   -4.8422   29.0261 O   0  0  0  0  0  0  0  0  0  0  0  0
    1.8495   -6.0717   28.2340 C   0  0  0  0  0  0  0  0  0  0  0  0
    4.7444  -11.9131   15.3527 C   0  0  0  0  0  0  0  0  0  0  0  0
    1.3771  -14.1698   14.7673 N   0  0  0  0  0  0  0  0  0  0  0  0
    6.9380   -8.7268   18.3942 C   0  0  0  0  0  0  0  0  0  0  0  0
   -0.6045   -5.5989   27.3737 C   0  0  0  0  0  0  0  0  0  0  0  0
    3.8042   -4.9797   30.9089 O   0  0  0  0  0  0  0  0  0  0  0  0
    2.6052  -13.0556   15.3091 C   0  0  0  0  0  0  0  0  0  0  0  0
    2.5743   -5.5536   26.5326 O   0  0  0  0  0  0  0  0  0  0  0  0
    4.1281   -5.0240   29.5320 He  0  0  0  0  0  0  0  0  0  0  0  0
  1 11  3  0
  1 14  1  0
  1 15  4  0
  1 22  4  0
  2  5  4  0
  2  6  4  0
  2  9  1  0
  2 10  3  0
  2 13  4  0
  2 17  1  0
  2 24  1  0
  2 27  1  0
  3  7  2  0
  3  8  4  0
  3 23  4  0
  4 10  4  0
  4 12  1  0
  4 13  2  0
  4 15  2  0
  4 19  3  0
  4 21  3  0
  5  7  4  0
  5 10  1  0
  5 13  4  0
  5 23  4  0
  7  8  4  0
  7 12  4  0
  8 12  3  0
  8 20  3  0
  9 13  4  0
  9 19  2  0
  9 20  1  0
  9 27  3  0
 10 13  4  0
 11 14  1  0
 11 17  1  0
 12 13  3  0
 12 14  3  0
 13 15  4  0
 13 26  2  0
 13 27  4  0
 14 16  1  0
 15 23  1  0
 16 24  1  0
 17 23  2  0
 18 21  4  0
 18 26  4  0
 22 26  4  0
 24 25  2  0
M  END
$$$$

 Created by Python create_sdf_string function

 28 30  0  0  0  0  0  0  0  0999 V2000
    0.7010  -14.1314   16.0343 C   0  0  0  0  0  0  0  0  0  0  0  0
    0.6639   -4.8035   26.9457 N   0  0  0  0  0  0  0  0  0  0  0  0
    5.8145   -8.9622   18.7180 C   0  0  0  0  0  0  0  0  0  0  0  0
    4.3325  -11.3640   16.2498 C   0  0  0  0  0  0  0  0  0  0  0  0
    7.2540   -9.1277   16.8542 C   0  0  0  0  0  0  0  0  0  0  0  0
    3.3710   -6.3312   28.7844 C   0  0  0  0  0  0  0  0  0  0  0  0
    6.4536  -10.0625   16.2677 C   0  0  0  0  0  0  0  0  0  0  0  0
    4.9152   -9.8948   18.0762 C   0  0  0  0  0  0  0  0  0  0  0  0
    1.8333   -5.4296   27.1324 C   0  0  0  0  0  0  0  0  0  0  0  0
    3.1945  -11.7266   16.9362 N   0  0  0  0  0  0  0  0  0  0  0  0
   -0.4966   -2.7398   27.3010 C   0  0  0  0  0  0  0  0  0  0  0  0
    5.1986  -10.4508   16.8536 C   0  0  0  0  0  0  0  0  0  0  0  0
    2.3391  -12.6443   16.3936 C   0  0  0  0  0  0  0  0  0  0  0  0
   -1.7967   -3.4302   27.0754 C   0  0  0  0  0  0  0  0  0  0  0  0
    1.1718  -13.2047   16.9275 N   0  0  0  0  0  0  0  0  0  0  0  0
   -1.6933   -4.7669   26.4994 C   0  0  0  0  0  0  0  0  0  0  0  0
    0.6249   -3.4200   26.6077 C   0  0  0  0  0  0  0  0  0  0  0  0
    3.7121  -12.9213   14.3862 C   0  0  0  0  0  0  0  0  0  0  0  0
    5.0373   -4.7352   29.0111 O   0  0  0  0  0  0  0  0  0  0  0  0
    2.0196   -6.0679   28.4503 C   0  0  0  0  0  0  0  0  0  0  0  0
    4.5754  -11.9461   14.9787 C   0  0  0  0  0  0  0  0  0  0  0  0
    4.0727   -5.2351   29.5715 C   0  0  0  0  0  0  0  0  0  0  0  0
    1.5200  -14.1549   14.8968 N   0  0  0  0  0  0  0  0  0  0  0  0
    6.9441   -8.5533   18.0544 C   0  0  0  0  0  0  0  0  0  0  0  0
   -0.5621   -5.4990   27.1731 C   0  0  0  0  0  0  0  0  0  0  0  0
    3.7130   -5.0039   30.6677 O   0  0  0  0  0  0  0  0  0  0  0  0
    2.5609  -13.2310   15.1445 C   0  0  0  0  0  0  0  0  0  0  0  0
    2.6858   -5.4790   26.2722 O   0  0  0  0  0  0  0  0  0  0  0  0
  1 15  4  0
  1 23  4  0
  2  9  1  0
  2 17  1  0
  2 25  1  0
  3  8  4  0
  3 24  4  0
  4 10  4  0
  4 12  1  0
  4 21  4  0
  5  7  4  0
  5 24  4  0
  6 20  1  0
  6 22  1  0
  7 12  4  0
  8 12  4  0
  9 20  1  0
  9 28  2  0
 10 13  4  0
 11 14  1  0
 11 17  1  0
 13 15  4  0
 13 27  4  0
 14 16  1  0
 16 25  1  0
 18 21  4  0
 18 27  4  0
 19 22  1  0
 22 26  2  0
 23 27  4  0
M  END
$$$$

 Created by Python create_sdf_string function

 28 40  0  0  0  0  0  0  0  0999 V2000
    1.0877  -13.9282   15.8241 C   0  0  0  0  0  0  0  0  0  0  0  0
    0.6192   -4.5795   26.8633 C   0  0  0  0  0  0  0  0  0  0  0  0
    4.1965  -11.4622   16.5644 C   0  0  0  0  0  0  0  0  0  0  0  0
    7.3482   -8.9796   16.6331 C   0  0  0  0  0  0  0  0  0  0  0  0
    3.0460   -6.0336   28.9611 C   0  0  0  0  0  0  0  0  0  0  0  0
    6.3126  -10.0544   15.9930 C   0  0  0  0  0  0  0  0  0  0  0  0
    4.6809  -10.1270   18.0748 C   0  0  0  0  0  0  0  0  0  0  0  0
    1.6811   -5.3085   27.1139 N   0  0  0  0  0  0  0  0  0  0  0  0
    3.5704  -12.0677   17.0892 C   0  0  0  0  0  0  0  0  0  0  0  0
   -0.6750   -2.2965   27.2291 C   0  0  0  0  0  0  0  0  0  0  0  0
    2.3882  -12.6460   16.6921 C   0  0  0  0  0  0  0  0  0  0  0  0
    1.4224  -13.3555   17.0193 N   0  0  0  0  0  0  0  0  0  0  0  0
   -1.8550   -4.7344   26.2825 C   0  0  0  0  0  0  0  0  0  0  0  0
    0.6869   -3.3405   26.7624 C   0  0  0  0  0  0  0  0  0  0  0  0
    3.7065  -13.0725   14.4217 C   0  0  0  0  0  0  0  0  0  0  0  0
    5.0088   -4.8379   28.7901 O   0  0  0  0  0  0  0  0  0  0  0  0
    2.3874   -6.2862   28.7061 C   0  0  0  0  0  0  0  0  0  0  0  0
    4.5509  -12.0852   15.3078 C   0  0  0  0  0  0  0  0  0  0  0  0
    3.9188   -5.5706   30.0038 C   0  0  0  0  0  0  0  0  0  0  0  0
    1.5685  -14.2478   14.7242 S   0  0  0  0  0  0  0  0  0  0  0  0
    7.1989   -8.3474   17.9352 C   0  0  0  0  0  0  0  0  0  0  0  0
   -0.4008   -5.9044   27.2246 C   0  0  0  0  0  0  0  0  0  0  0  0
    3.5316   -4.9256   30.7397 O   0  0  0  0  0  0  0  0  0  0  0  0
    2.6080  -13.1795   14.9218 C   0  0  0  0  0  0  0  0  0  0  0  0
    2.9910   -5.4796   26.3322 O   0  0  0  0  0  0  0  0  0  0  0  0
    5.8427   -8.7868   19.1049 He  0  0  0  0  0  0  0  0  0  0  0  0
    4.8341  -10.4033   16.5981 He  0  0  0  0  0  0  0  0  0  0  0  0
   -1.6903   -3.4792   27.2529 He  0  0  0  0  0  0  0  0  0  0  0  0
  1  9  1  0
  1 12  4  0
  1 20  4  0
  2  8  1  0
  2 14  1  0
  3  4  3  0
  3  8  4  0
  3  9  4  0
  3 18  4  0
  4  6  4  0
  4  9  3  0
  4 10  3  0
  4 13  1  0
  5 17  1  0
  5 19  1  0
  6 18  4  0
  6 19  3  0
  6 21  1  0
  6 25  2  0
  7 14  1  0
  7 16  3  0
  7 22  1  0
  8 17  1  0
  8 18  2  0
  8 25  2  0
  9 11  4  0
  9 22  3  0
 10 14  1  0
 10 25  2  0
 11 12  4  0
 11 24  4  0
 12 14  3  0
 13 22  1  0
 15 16  4  0
 15 18  4  0
 15 24  4  0
 15 25  3  0
 16 19  1  0
 19 23  2  0
 20 24  4  0
M  END
$$$$

 Created by Python create_sdf_string function

 28 30  0  0  0  0  0  0  0  0999 V2000
    0.7305  -14.1391   15.9923 C   0  0  0  0  0  0  0  0  0  0  0  0
    0.6845   -4.7042   26.9866 N   0  0  0  0  0  0  0  0  0  0  0  0
    5.8449   -8.8694   18.6511 C   0  0  0  0  0  0  0  0  0  0  0  0
    4.4236  -11.4152   16.3740 C   0  0  0  0  0  0  0  0  0  0  0  0
    7.1609   -8.9936   16.6903 C   0  0  0  0  0  0  0  0  0  0  0  0
    3.2064   -6.4147   29.0539 C   0  0  0  0  0  0  0  0  0  0  0  0
    6.3585   -9.9496   16.1546 C   0  0  0  0  0  0  0  0  0  0  0  0
    4.9839   -9.8913   18.1357 C   0  0  0  0  0  0  0  0  0  0  0  0
    1.9237   -5.3778   27.1891 C   0  0  0  0  0  0  0  0  0  0  0  0
    3.2943  -11.8979   17.0671 C   0  0  0  0  0  0  0  0  0  0  0  0
   -0.6027   -2.6505   27.1337 C   0  0  0  0  0  0  0  0  0  0  0  0
    5.2294  -10.4585   16.8963 C   0  0  0  0  0  0  0  0  0  0  0  0
    2.4783  -12.8319   16.4749 C   0  0  0  0  0  0  0  0  0  0  0  0
   -1.8209   -3.4083   27.1507 C   0  0  0  0  0  0  0  0  0  0  0  0
    1.2945  -13.3951   16.9349 N   0  0  0  0  0  0  0  0  0  0  0  0
   -1.7362   -4.7381   26.5169 C   0  0  0  0  0  0  0  0  0  0  0  0
    0.6809   -3.3314   26.7656 C   0  0  0  0  0  0  0  0  0  0  0  0
    3.7990  -12.8358   14.4410 C   0  0  0  0  0  0  0  0  0  0  0  0
    4.9333   -4.8947   29.0601 O   0  0  0  0  0  0  0  0  0  0  0  0
    2.0029   -6.0278   28.4843 C   0  0  0  0  0  0  0  0  0  0  0  0
    4.6593  -11.9168   15.0880 C   0  0  0  0  0  0  0  0  0  0  0  0
    3.9716   -5.2897   29.7237 C   0  0  0  0  0  0  0  0  0  0  0  0
    1.5608  -14.1322   14.7806 N   0  0  0  0  0  0  0  0  0  0  0  0
    6.9290   -8.4544   17.9229 C   0  0  0  0  0  0  0  0  0  0  0  0
   -0.4878   -5.4562   27.0546 C   0  0  0  0  0  0  0  0  0  0  0  0
    3.6160   -4.9133   30.7523 O   0  0  0  0  0  0  0  0  0  0  0  0
    2.7108  -13.2650   15.1916 C   0  0  0  0  0  0  0  0  0  0  0  0
    2.8141   -5.3810   26.3901 O   0  0  0  0  0  0  0  0  0  0  0  0
  1 15  4  0
  1 23  4  0
  2  9  1  0
  2 17  1  0
  2 25  1  0
  3  8  4  0
  3 24  4  0
  4 10  4  0
  4 12  1  0
  4 21  4  0
  5  7  4  0
  5 24  4  0
  6 20  1  0
  6 22  1  0
  7 12  4  0
  8 12  4  0
  9 20  1  0
  9 28  2  0
 10 13  4  0
 11 14  1  0
 11 17  1  0
 13 15  4  0
 13 27  4  0
 14 16  1  0
 16 25  1  0
 18 21  4  0
 18 27  4  0
 19 22  1  0
 22 26  2  0
 23 27  4  0
M  END
$$$$

 Created by Python create_sdf_string function

 28 36  0  0  0  0  0  0  0  0999 V2000
    0.5886  -14.1955   16.0891 C   0  0  0  0  0  0  0  0  0  0  0  0
    0.6016   -4.7255   26.9720 N   0  0  0  0  0  0  0  0  0  0  0  0
    5.9601   -8.8487   18.7466 C   0  0  0  0  0  0  0  0  0  0  0  0
    7.6307   -9.1627   16.5257 C   0  0  0  0  0  0  0  0  0  0  0  0
    6.2769   -9.8234   16.3474 C   0  0  0  0  0  0  0  0  0  0  0  0
    5.2210   -9.6837   17.9074 C   0  0  0  0  0  0  0  0  0  0  0  0
    2.0166   -5.4864   27.0982 C   0  0  0  0  0  0  0  0  0  0  0  0
    3.4517  -12.1406   17.1210 C   0  0  0  0  0  0  0  0  0  0  0  0
   -0.4878   -2.5821   27.3182 C   0  0  0  0  0  0  0  0  0  0  0  0
    5.3421  -10.4498   16.9120 C   0  0  0  0  0  0  0  0  0  0  0  0
   -1.6773   -3.3888   27.2838 C   0  0  0  0  0  0  0  0  0  0  0  0
    1.3103  -13.2906   16.8762 O   0  0  0  0  0  0  0  0  0  0  0  0
    0.7529   -3.1779   26.6904 O   0  0  0  0  0  0  0  0  0  0  0  0
    3.6928  -13.0388   14.1424 C   0  0  0  0  0  0  0  0  0  0  0  0
    4.6976   -4.8058   28.7396 O   0  0  0  0  0  0  0  0  0  0  0  0
    1.9259   -5.6532   28.4864 C   0  0  0  0  0  0  0  0  0  0  0  0
    4.8074  -11.6645   15.2502 C   0  0  0  0  0  0  0  0  0  0  0  0
    3.9365   -5.9283   29.7434 C   0  0  0  0  0  0  0  0  0  0  0  0
    1.4621  -14.1333   14.7149 N   0  0  0  0  0  0  0  0  0  0  0  0
    7.1734   -8.4970   18.0657 C   0  0  0  0  0  0  0  0  0  0  0  0
   -0.3665   -5.4012   27.2603 C   0  0  0  0  0  0  0  0  0  0  0  0
    3.7027   -5.0195   30.9057 O   0  0  0  0  0  0  0  0  0  0  0  0
    2.8873  -13.2113   14.8507 C   0  0  0  0  0  0  0  0  0  0  0  0
    2.8965   -5.5093   26.2870 O   0  0  0  0  0  0  0  0  0  0  0  0
    4.2679  -11.4398   16.3973 He  0  0  0  0  0  0  0  0  0  0  0  0
    3.2252   -6.6028   29.2585 He  0  0  0  0  0  0  0  0  0  0  0  0
    2.6033  -12.7820   16.4709 He  0  0  0  0  0  0  0  0  0  0  0  0
   -1.9321   -4.7876   26.6570 He  0  0  0  0  0  0  0  0  0  0  0  0
  1  5  4  0
  1 12  4  0
  2  6  2  0
  2  7  1  0
  2 13  1  0
  2 19  2  0
  2 24  1  0
  3  6  4  0
  3 20  4  0
  4  5  4  0
  4 10  4  0
  4 15  3  0
  4 17  1  0
  4 18  3  0
  4 20  4  0
  5  9  1  0
  5 11  1  0
  6 10  4  0
  6 21  4  0
  7 10  4  0
  7 16  1  0
  7 17  3  0
  7 22  2  0
 10 11  2  0
 10 23  3  0
 12 21  2  0
 13 21  3  0
 14 17  4  0
 14 23  4  0
 15 18  1  0
 18 22  2  0
 19 23  4  0
 19 24  2  0
 20 23  2  0
 21 24  3  0
 22 23  4  0
M  END
$$$$

 Created by Python create_sdf_string function

 28 30  0  0  0  0  0  0  0  0999 V2000
    0.8049  -14.0857   15.9084 C   0  0  0  0  0  0  0  0  0  0  0  0
    0.7017   -4.7136   26.8867 N   0  0  0  0  0  0  0  0  0  0  0  0
    5.9340   -8.8333   18.6186 C   0  0  0  0  0  0  0  0  0  0  0  0
    4.4679  -11.3850   16.3198 C   0  0  0  0  0  0  0  0  0  0  0  0
    7.3356   -9.0719   16.7318 C   0  0  0  0  0  0  0  0  0  0  0  0
    3.0796   -6.4749   29.0694 C   0  0  0  0  0  0  0  0  0  0  0  0
    6.5268   -9.9883   16.1964 C   0  0  0  0  0  0  0  0  0  0  0  0
    5.0752   -9.8269   18.0769 C   0  0  0  0  0  0  0  0  0  0  0  0
    1.8989   -5.3216   27.1929 C   0  0  0  0  0  0  0  0  0  0  0  0
    3.3912  -11.9091   17.0463 C   0  0  0  0  0  0  0  0  0  0  0  0
   -0.4993   -2.6354   27.2450 C   0  0  0  0  0  0  0  0  0  0  0  0
    5.3176  -10.4224   16.8742 C   0  0  0  0  0  0  0  0  0  0  0  0
    2.5348  -12.7777   16.4699 C   0  0  0  0  0  0  0  0  0  0  0  0
   -1.7621   -3.3324   27.2112 C   0  0  0  0  0  0  0  0  0  0  0  0
    1.3757  -13.3587   16.9403 N   0  0  0  0  0  0  0  0  0  0  0  0
   -1.7410   -4.7337   26.7469 C   0  0  0  0  0  0  0  0  0  0  0  0
    0.6929   -3.3487   26.7686 C   0  0  0  0  0  0  0  0  0  0  0  0
    3.7867  -12.7632   14.3746 C   0  0  0  0  0  0  0  0  0  0  0  0
    4.7665   -4.9451   28.9169 O   0  0  0  0  0  0  0  0  0  0  0  0
    1.9176   -5.8430   28.5822 C   0  0  0  0  0  0  0  0  0  0  0  0
    4.6646  -11.8534   15.0048 C   0  0  0  0  0  0  0  0  0  0  0  0
    3.9710   -5.4666   29.7135 C   0  0  0  0  0  0  0  0  0  0  0  0
    1.6109  -14.0320   14.8265 N   0  0  0  0  0  0  0  0  0  0  0  0
    7.0687   -8.4799   17.9196 C   0  0  0  0  0  0  0  0  0  0  0  0
   -0.4867   -5.4318   27.1573 C   0  0  0  0  0  0  0  0  0  0  0  0
    3.7810   -5.1971   30.8476 O   0  0  0  0  0  0  0  0  0  0  0  0
    2.6968  -13.2006   15.1608 C   0  0  0  0  0  0  0  0  0  0  0  0
    2.7800   -5.4716   26.4181 O   0  0  0  0  0  0  0  0  0  0  0  0
  1 15  4  0
  1 23  4  0
  2  9  1  0
  2 17  1  0
  2 25  1  0
  3  8  4  0
  3 24  4  0
  4 10  4  0
  4 12  1  0
  4 21  4  0
  5  7  4  0
  5 24  4  0
  6 20  1  0
  6 22  1  0
  7 12  4  0
  8 12  4  0
  9 20  1  0
  9 28  2  0
 10 13  4  0
 11 14  1  0
 11 17  1  0
 13 15  4  0
 13 27  4  0
 14 16  1  0
 16 25  1  0
 18 21  4  0
 18 27  4  0
 19 22  1  0
 22 26  2  0
 23 27  4  0
M  END
$$$$

 Created by Python create_sdf_string function

 28 40  0  0  0  0  0  0  0  0999 V2000
    0.7478  -14.0086   15.7193 C   0  0  0  0  0  0  0  0  0  0  0  0
    0.7686   -4.5604   26.9507 N   0  0  0  0  0  0  0  0  0  0  0  0
    5.7072   -8.8875   18.7586 C   0  0  0  0  0  0  0  0  0  0  0  0
    4.4460  -11.3873   16.1701 C   0  0  0  0  0  0  0  0  0  0  0  0
    3.2280   -6.4090   29.1174 C   0  0  0  0  0  0  0  0  0  0  0  0
    6.5863   -9.7774   15.9930 C   0  0  0  0  0  0  0  0  0  0  0  0
    5.0865   -9.6775   18.1697 C   0  0  0  0  0  0  0  0  0  0  0  0
    1.7203   -5.3581   27.1971 C   0  0  0  0  0  0  0  0  0  0  0  0
    3.4791  -11.8407   16.7989 C   0  0  0  0  0  0  0  0  0  0  0  0
   -0.1618   -2.5677   27.1017 F   0  0  0  0  0  0  0  0  0  0  0  0
    2.3215  -12.8366   16.4322 C   0  0  0  0  0  0  0  0  0  0  0  0
   -1.6344   -3.2712   27.3231 C   0  0  0  0  0  0  0  0  0  0  0  0
    1.3969  -13.1541   16.9261 N   0  0  0  0  0  0  0  0  0  0  0  0
   -1.8053   -4.9451   26.9010 C   0  0  0  0  0  0  0  0  0  0  0  0
    0.8973   -3.9176   26.5656 C   0  0  0  0  0  0  0  0  0  0  0  0
    3.9036  -12.8134   14.3518 C   0  0  0  0  0  0  0  0  0  0  0  0
    4.9297   -4.9920   28.9496 O   0  0  0  0  0  0  0  0  0  0  0  0
    1.7320   -5.7212   28.5912 C   0  0  0  0  0  0  0  0  0  0  0  0
    4.0826   -5.6336   29.9759 C   0  0  0  0  0  0  0  0  0  0  0  0
    1.4915  -13.9285   14.9676 N   0  0  0  0  0  0  0  0  0  0  0  0
    6.8989   -8.3856   18.1109 C   0  0  0  0  0  0  0  0  0  0  0  0
   -0.7382   -5.4154   26.9435 C   0  0  0  0  0  0  0  0  0  0  0  0
    2.5733  -13.1342   15.2618 C   0  0  0  0  0  0  0  0  0  0  0  0
    3.0582   -5.5799   26.2881 O   0  0  0  0  0  0  0  0  0  0  0  0
    7.3668   -8.9992   16.7385 He  0  0  0  0  0  0  0  0  0  0  0  0
    5.2903  -10.7293   16.8946 He  0  0  0  0  0  0  0  0  0  0  0  0
    4.9130  -11.9163   14.7278 He  0  0  0  0  0  0  0  0  0  0  0  0
    3.7398   -5.1293   30.6073 He  0  0  0  0  0  0  0  0  0  0  0  0
  1  6  3  0
  1 13  4  0
  1 20  4  0
  1 22  1  0
  2  6  4  0
  2  8  1  0
  2 14  3  0
  2 15  1  0
  2 19  3  0
  2 22  1  0
  3  6  1  0
  3  7  4  0
  3 21  4  0
  4  5  3  0
  4  9  4  0
  5  8  1  0
  5  9  1  0
  5 16  4  0
  5 18  1  0
  6 15  3  0
  7 22  2  0
  8 16  1  0
  8 18  1  0
  9 11  4  0
 10 12  1  0
 10 13  3  0
 10 15  1  0
 10 22  4  0
 11 13  3  0
 12 14  1  0
 12 17  2  0
 14 18  4  0
 14 22  1  0
 16 22  3  0
 16 23  4  0
 16 24  4  0
 17 19  1  0
 17 20  1  0
 20 22  3  0
 20 23  4  0
M  END
$$$$

 Created by Python create_sdf_string function

 28 30  0  0  0  0  0  0  0  0999 V2000
    0.7815  -13.9534   15.8735 C   0  0  0  0  0  0  0  0  0  0  0  0
    0.7180   -4.8258   26.8963 N   0  0  0  0  0  0  0  0  0  0  0  0
    5.8324   -8.8523   18.6499 C   0  0  0  0  0  0  0  0  0  0  0  0
    4.5100  -11.3436   16.2450 C   0  0  0  0  0  0  0  0  0  0  0  0
    7.2802   -8.9372   16.7735 C   0  0  0  0  0  0  0  0  0  0  0  0
    3.1977   -6.4619   29.0140 C   0  0  0  0  0  0  0  0  0  0  0  0
    6.5238   -9.9133   16.1835 C   0  0  0  0  0  0  0  0  0  0  0  0
    5.0230   -9.8564   18.0702 C   0  0  0  0  0  0  0  0  0  0  0  0
    1.8477   -5.4496   27.2249 C   0  0  0  0  0  0  0  0  0  0  0  0
    3.4047  -11.8155   16.9510 C   0  0  0  0  0  0  0  0  0  0  0  0
   -0.3279   -2.6556   27.0256 C   0  0  0  0  0  0  0  0  0  0  0  0
    5.3234  -10.3966   16.8169 C   0  0  0  0  0  0  0  0  0  0  0  0
    2.5051  -12.6725   16.3847 C   0  0  0  0  0  0  0  0  0  0  0  0
   -1.6330   -3.2725   27.2419 C   0  0  0  0  0  0  0  0  0  0  0  0
    1.2855  -13.2026   16.8763 N   0  0  0  0  0  0  0  0  0  0  0  0
   -1.7228   -4.6977   26.8751 C   0  0  0  0  0  0  0  0  0  0  0  0
    0.7960   -3.4723   26.5471 C   0  0  0  0  0  0  0  0  0  0  0  0
    3.8091  -12.7955   14.3519 C   0  0  0  0  0  0  0  0  0  0  0  0
    4.9831   -5.0112   29.0553 O   0  0  0  0  0  0  0  0  0  0  0  0
    1.9311   -5.8743   28.6514 C   0  0  0  0  0  0  0  0  0  0  0  0
    4.7233  -11.8828   14.9458 C   0  0  0  0  0  0  0  0  0  0  0  0
    4.0471   -5.4334   29.7117 C   0  0  0  0  0  0  0  0  0  0  0  0
    1.5834  -13.9851   14.7768 N   0  0  0  0  0  0  0  0  0  0  0  0
    6.9475   -8.3866   17.9696 C   0  0  0  0  0  0  0  0  0  0  0  0
   -0.4883   -5.4741   27.0625 C   0  0  0  0  0  0  0  0  0  0  0  0
    3.7082   -5.0966   30.7776 O   0  0  0  0  0  0  0  0  0  0  0  0
    2.6817  -13.1615   15.0994 C   0  0  0  0  0  0  0  0  0  0  0  0
    2.8008   -5.5776   26.4487 O   0  0  0  0  0  0  0  0  0  0  0  0
  1 15  4  0
  1 23  4  0
  2  9  1  0
  2 17  1  0
  2 25  1  0
  3  8  4  0
  3 24  4  0
  4 10  4  0
  4 12  1  0
  4 21  4  0
  5  7  4  0
  5 24  4  0
  6 20  1  0
  6 22  1  0
  7 12  4  0
  8 12  4  0
  9 20  1  0
  9 28  2  0
 10 13  4  0
 11 14  1  0
 11 17  1  0
 13 15  4  0
 13 27  4  0
 14 16  1  0
 16 25  1  0
 18 21  4  0
 18 27  4  0
 19 22  1  0
 22 26  2  0
 23 27  4  0
M  END
$$$$

 Created by Python create_sdf_string function

 28 40  0  0  0  0  0  0  0  0999 V2000
    0.8781  -13.9551   15.5772 C   0  0  0  0  0  0  0  0  0  0  0  0
    1.0096   -4.8113   26.7719 N   0  0  0  0  0  0  0  0  0  0  0  0
    5.9792   -9.0856   18.6063 B   0  0  0  0  0  0  0  0  0  0  0  0
    4.5662  -11.4908   16.1326 C   0  0  0  0  0  0  0  0  0  0  0  0
    7.3947   -9.0322   16.8805 C   0  0  0  0  0  0  0  0  0  0  0  0
    3.2185   -6.4193   28.9303 C   0  0  0  0  0  0  0  0  0  0  0  0
    4.7524   -9.8276   17.9286 C   0  0  0  0  0  0  0  0  0  0  0  0
    1.6021   -5.4041   27.2548 C   0  0  0  0  0  0  0  0  0  0  0  0
    3.4572  -11.7937   16.8963 C   0  0  0  0  0  0  0  0  0  0  0  0
   -0.0902   -2.7119   27.1212 C   0  0  0  0  0  0  0  0  0  0  0  0
    4.9793  -10.5917   16.7002 Br  0  0  0  0  0  0  0  0  0  0  0  0
    2.4549  -12.3625   16.2629 C   0  0  0  0  0  0  0  0  0  0  0  0
   -1.7343   -3.4598   27.2691 C   0  0  0  0  0  0  0  0  0  0  0  0
    1.0680  -13.5398   17.0417 N   0  0  0  0  0  0  0  0  0  0  0  0
    0.7436   -3.2146   26.4419 C   0  0  0  0  0  0  0  0  0  0  0  0
    3.8553  -13.0207   14.5138 C   0  0  0  0  0  0  0  0  0  0  0  0
    5.2978   -4.9738   28.9618 O   0  0  0  0  0  0  0  0  0  0  0  0
    2.0529   -5.6396   28.4359 C   0  0  0  0  0  0  0  0  0  0  0  0
    4.6749  -12.0028   14.8665 C   0  0  0  0  0  0  0  0  0  0  0  0
    4.0366   -5.5660   29.6667 Cl  0  0  0  0  0  0  0  0  0  0  0  0
    1.8035  -14.0649   14.5996 N   0  0  0  0  0  0  0  0  0  0  0  0
    6.9358   -8.1927   17.9421 C   0  0  0  0  0  0  0  0  0  0  0  0
   -0.3708   -5.5866   27.0985 C   0  0  0  0  0  0  0  0  0  0  0  0
    2.7833  -13.1821   14.8283 C   0  0  0  0  0  0  0  0  0  0  0  0
    2.7725   -5.6881   26.3803 O   0  0  0  0  0  0  0  0  0  0  0  0
    6.5870   -9.8788   16.1059 He  0  0  0  0  0  0  0  0  0  0  0  0
   -1.7346   -4.9736   26.8243 He  0  0  0  0  0  0  0  0  0  0  0  0
    3.6172   -5.0954   31.0215 He  0  0  0  0  0  0  0  0  0  0  0  0
  1 14  4  0
  1 17  4  0
  2  8  1  0
  2 15  1  0
  2 20  1  0
  2 23  1  0
  3  7  4  0
  3  8  4  0
  3 21  2  0
  3 22  4  0
  4  9  4  0
  4 10  2  0
  4 15  4  0
  4 19  4  0
  4 21  1  0
  4 22  3  0
  5 22  4  0
  6 15  3  0
  6 20  1  0
  7 11  4  0
  8 12  1  0
  8 13  4  0
  8 18  1  0
  8 25  2  0
  9 12  4  0
  9 18  3  0
  9 21  2  0
 10 13  1  0
 10 15  1  0
 10 25  4  0
 12 14  4  0
 12 24  3  0
 14 24  1  0
 14 25  3  0
 15 22  2  0
 16 19  4  0
 17 21  3  0
 18 25  4  0
 21 23  4  0
 21 24  4  0
M  END
$$$$

 Created by Python create_sdf_string function

 28 30  0  0  0  0  0  0  0  0999 V2000
    0.8379  -14.0569   15.6802 C   0  0  0  0  0  0  0  0  0  0  0  0
    0.7403   -4.8193   26.8358 N   0  0  0  0  0  0  0  0  0  0  0  0
    5.7967   -8.8210   18.5596 C   0  0  0  0  0  0  0  0  0  0  0  0
    4.4887  -11.3518   16.2134 C   0  0  0  0  0  0  0  0  0  0  0  0
    7.2760   -8.9998   16.7432 C   0  0  0  0  0  0  0  0  0  0  0  0
    3.2317   -6.4046   28.9409 C   0  0  0  0  0  0  0  0  0  0  0  0
    6.5161   -9.9565   16.1571 C   0  0  0  0  0  0  0  0  0  0  0  0
    4.9791   -9.8379   18.0245 C   0  0  0  0  0  0  0  0  0  0  0  0
    1.8979   -5.4097   27.1648 C   0  0  0  0  0  0  0  0  0  0  0  0
    3.3088  -11.7728   16.8519 C   0  0  0  0  0  0  0  0  0  0  0  0
   -0.4169   -2.7009   27.1349 C   0  0  0  0  0  0  0  0  0  0  0  0
    5.3042  -10.4020   16.7972 C   0  0  0  0  0  0  0  0  0  0  0  0
    2.5054  -12.7037   16.2786 C   0  0  0  0  0  0  0  0  0  0  0  0
   -1.7297   -3.3788   27.1833 C   0  0  0  0  0  0  0  0  0  0  0  0
    1.2410  -13.2482   16.7072 N   0  0  0  0  0  0  0  0  0  0  0  0
   -1.6959   -4.8069   26.7986 C   0  0  0  0  0  0  0  0  0  0  0  0
    0.7202   -3.4224   26.5320 C   0  0  0  0  0  0  0  0  0  0  0  0
    3.8887  -12.8535   14.3243 C   0  0  0  0  0  0  0  0  0  0  0  0
    5.1064   -5.0312   29.1362 O   0  0  0  0  0  0  0  0  0  0  0  0
    2.0117   -5.7319   28.5877 C   0  0  0  0  0  0  0  0  0  0  0  0
    4.7765  -11.9336   14.9659 C   0  0  0  0  0  0  0  0  0  0  0  0
    4.0998   -5.4409   29.7118 C   0  0  0  0  0  0  0  0  0  0  0  0
    1.7093  -14.0596   14.6541 N   0  0  0  0  0  0  0  0  0  0  0  0
    6.9379   -8.4200   17.9392 C   0  0  0  0  0  0  0  0  0  0  0  0
   -0.4469   -5.5231   27.0817 C   0  0  0  0  0  0  0  0  0  0  0  0
    3.7488   -5.1322   30.8122 O   0  0  0  0  0  0  0  0  0  0  0  0
    2.7709  -13.2215   15.0285 C   0  0  0  0  0  0  0  0  0  0  0  0
    2.7585   -5.7003   26.3690 O   0  0  0  0  0  0  0  0  0  0  0  0
  1 15  4  0
  1 23  4  0
  2  9  1  0
  2 17  1  0
  2 25  1  0
  3  8  4  0
  3 24  4  0
  4 10  4  0
  4 12  1  0
  4 21  4  0
  5  7  4  0
  5 24  4  0
  6 20  1  0
  6 22  1  0
  7 12  4  0
  8 12  4  0
  9 20  1  0
  9 28  2  0
 10 13  4  0
 11 14  1  0
 11 17  1  0
 13 15  4  0
 13 27  4  0
 14 16  1  0
 16 25  1  0
 18 21  4  0
 18 27  4  0
 19 22  1  0
 22 26  2  0
 23 27  4  0
M  END
$$$$

 Created by Python create_sdf_string function

 28 44  0  0  0  0  0  0  0  0999 V2000
    0.9510  -13.8765   15.8667 C   0  0  0  0  0  0  0  0  0  0  0  0
    0.8702   -4.7319   27.0363 N   0  0  0  0  0  0  0  0  0  0  0  0
    5.6510   -8.7512   18.7034 C   0  0  0  0  0  0  0  0  0  0  0  0
    4.6897  -11.5949   16.0222 C   0  0  0  0  0  0  0  0  0  0  0  0
    7.2917   -9.1071   16.8057 C   0  0  0  0  0  0  0  0  0  0  0  0
    3.0155   -6.3644   28.6746 C   0  0  0  0  0  0  0  0  0  0  0  0
    6.5055   -9.8953   15.8755 C   0  0  0  0  0  0  0  0  0  0  0  0
    4.7387   -9.8491   18.3045 C   0  0  0  0  0  0  0  0  0  0  0  0
    1.8685   -5.3522   27.0779 C   0  0  0  0  0  0  0  0  0  0  0  0
    3.3906  -11.7936   16.9333 C   0  0  0  0  0  0  0  0  0  0  0  0
   -0.4746   -2.7204   27.1453 C   0  0  0  0  0  0  0  0  0  0  0  0
    5.5638  -10.5037   16.9875 C   0  0  0  0  0  0  0  0  0  0  0  0
    2.2994  -12.4140   16.3137 C   0  0  0  0  0  0  0  0  0  0  0  0
   -1.7208   -3.2920   26.8455 C   0  0  0  0  0  0  0  0  0  0  0  0
    1.1149  -13.3818   16.5291 N   0  0  0  0  0  0  0  0  0  0  0  0
   -1.6713   -4.3821   27.0219 C   0  0  0  0  0  0  0  0  0  0  0  0
    0.6686   -3.2397   26.5012 C   0  0  0  0  0  0  0  0  0  0  0  0
    3.9202  -12.8415   14.4340 C   0  0  0  0  0  0  0  0  0  0  0  0
    5.1726   -5.2309   29.3031 O   0  0  0  0  0  0  0  0  0  0  0  0
    1.9710   -5.6304   28.5817 C   0  0  0  0  0  0  0  0  0  0  0  0
    4.7772  -11.8215   15.0797 C   0  0  0  0  0  0  0  0  0  0  0  0
    3.9471   -5.6214   29.5610 C   0  0  0  0  0  0  0  0  0  0  0  0
    1.6172  -13.8482   14.6708 N   0  0  0  0  0  0  0  0  0  0  0  0
    6.8468   -8.0742   17.7350 C   0  0  0  0  0  0  0  0  0  0  0  0
   -0.4960   -5.3750   27.2142 C   0  0  0  0  0  0  0  0  0  0  0  0
    3.7565   -5.0170   30.5686 O   0  0  0  0  0  0  0  0  0  0  0  0
    2.6581  -13.3770   15.0031 C   0  0  0  0  0  0  0  0  0  0  0  0
    2.7290   -5.5939   26.3921 O   0  0  0  0  0  0  0  0  0  0  0  0
  1 15  4  0
  1 19  3  0
  1 22  1  0
  1 23  4  0
  2  9  2  0
  2 17  1  0
  2 20  4  0
  2 25  1  0
  3  8  4  0
  3 19  4  0
  3 24  4  0
  4 12  1  0
  4 21  4  0
  5  7  4  0
  5 24  4  0
  6 20  1  0
  6 22  1  0
  7  8  3  0
  7 12  4  0
  7 28  3  0
  8 12  4  0
  8 22  4  0
  9 20  1  0
  9 28  2  0
 10 11  1  0
 10 13  2  0
 10 18  1  0
 11 14  1  0
 11 17  1  0
 11 25  3  0
 12 25  1  0
 13 14  1  0
 13 15  4  0
 13 26  1  0
 13 27  4  0
 16 23  2  0
 16 25  1  0
 16 28  3  0
 17 27  3  0
 18 21  4  0
 18 25  2  0
 23 24  3  0
 23 26  3  0
 23 27  2  0
M  END
$$$$

 Created by Python create_sdf_string function

 28 30  0  0  0  0  0  0  0  0999 V2000
    0.7890  -13.9417   15.6954 C   0  0  0  0  0  0  0  0  0  0  0  0
    0.6597   -4.6675   26.9303 N   0  0  0  0  0  0  0  0  0  0  0  0
    5.7623   -8.7331   18.5679 C   0  0  0  0  0  0  0  0  0  0  0  0
    4.5083  -11.3582   16.2612 C   0  0  0  0  0  0  0  0  0  0  0  0
    7.2279   -8.8752   16.7175 C   0  0  0  0  0  0  0  0  0  0  0  0
    3.1931   -6.3943   28.8363 C   0  0  0  0  0  0  0  0  0  0  0  0
    6.5427   -9.9485   16.1947 C   0  0  0  0  0  0  0  0  0  0  0  0
    5.0012   -9.8260   18.0683 C   0  0  0  0  0  0  0  0  0  0  0  0
    1.7934   -5.2958   27.1727 C   0  0  0  0  0  0  0  0  0  0  0  0
    3.3413  -11.7981   16.9302 C   0  0  0  0  0  0  0  0  0  0  0  0
   -0.4886   -2.5261   27.0859 C   0  0  0  0  0  0  0  0  0  0  0  0
    5.3313  -10.3954   16.8455 C   0  0  0  0  0  0  0  0  0  0  0  0
    2.4664  -12.6654   16.3117 C   0  0  0  0  0  0  0  0  0  0  0  0
   -1.7845   -3.1874   26.8079 C   0  0  0  0  0  0  0  0  0  0  0  0
    1.2168  -13.1719   16.7099 N   0  0  0  0  0  0  0  0  0  0  0  0
   -1.7968   -4.6026   26.9758 C   0  0  0  0  0  0  0  0  0  0  0  0
    0.6670   -3.2855   26.5537 C   0  0  0  0  0  0  0  0  0  0  0  0
    3.8743  -12.8032   14.3424 C   0  0  0  0  0  0  0  0  0  0  0  0
    5.2128   -5.3408   29.1716 O   0  0  0  0  0  0  0  0  0  0  0  0
    1.9429   -5.7250   28.5666 C   0  0  0  0  0  0  0  0  0  0  0  0
    4.8020  -11.9477   15.0138 C   0  0  0  0  0  0  0  0  0  0  0  0
    4.0935   -5.5127   29.6135 C   0  0  0  0  0  0  0  0  0  0  0  0
    1.6518  -13.9917   14.6564 N   0  0  0  0  0  0  0  0  0  0  0  0
    6.8594   -8.2624   17.8727 C   0  0  0  0  0  0  0  0  0  0  0  0
   -0.5695   -5.3297   27.2378 C   0  0  0  0  0  0  0  0  0  0  0  0
    3.6604   -5.0491   30.6456 O   0  0  0  0  0  0  0  0  0  0  0  0
    2.7255  -13.1522   15.0217 C   0  0  0  0  0  0  0  0  0  0  0  0
    2.6273   -5.5652   26.3397 O   0  0  0  0  0  0  0  0  0  0  0  0
  1 15  4  0
  1 23  4  0
  2  9  1  0
  2 17  1  0
  2 25  1  0
  3  8  4  0
  3 24  4  0
  4 10  4  0
  4 12  1  0
  4 21  4  0
  5  7  4  0
  5 24  4  0
  6 20  1  0
  6 22  1  0
  7 12  4  0
  8 12  4  0
  9 20  1  0
  9 28  2  0
 10 13  4  0
 11 14  1  0
 11 17  1  0
 13 15  4  0
 13 27  4  0
 14 16  1  0
 16 25  1  0
 18 21  4  0
 18 27  4  0
 19 22  2  0
 22 26  2  0
 23 27  4  0
M  END
$$$$

 Created by Python create_sdf_string function

 28 43  0  0  0  0  0  0  0  0999 V2000
    0.8347  -14.0068   15.6397 C   0  0  0  0  0  0  0  0  0  0  0  0
    0.5658   -4.8644   26.7996 N   0  0  0  0  0  0  0  0  0  0  0  0
    5.5122   -8.6592   18.4691 C   0  0  0  0  0  0  0  0  0  0  0  0
    4.5521  -11.1857   16.3124 C   0  0  0  0  0  0  0  0  0  0  0  0
    7.0351   -8.7898   17.1458 C   0  0  0  0  0  0  0  0  0  0  0  0
    3.0687   -6.4723   28.9354 C   0  0  0  0  0  0  0  0  0  0  0  0
    6.6830   -9.9596   16.1631 C   0  0  0  0  0  0  0  0  0  0  0  0
    5.0652   -9.6480   18.0270 C   0  0  0  0  0  0  0  0  0  0  0  0
    1.6495   -5.2900   27.2927 C   0  0  0  0  0  0  0  0  0  0  0  0
    3.2018  -11.8499   17.1851 C   0  0  0  0  0  0  0  0  0  0  0  0
   -0.5948   -2.4866   27.0912 C   0  0  0  0  0  0  0  0  0  0  0  0
    5.5471  -10.3380   17.0471 C   0  0  0  0  0  0  0  0  0  0  0  0
    2.3732  -12.4518   16.3477 C   0  0  0  0  0  0  0  0  0  0  0  0
   -1.7306   -3.3543   26.8924 C   0  0  0  0  0  0  0  0  0  0  0  0
    1.1785  -13.0486   16.7382 Cl  0  0  0  0  0  0  0  0  0  0  0  0
   -1.8164   -4.5343   27.0517 C   0  0  0  0  0  0  0  0  0  0  0  0
    0.5735   -3.2019   26.3100 C   0  0  0  0  0  0  0  0  0  0  0  0
    5.1339   -5.5220   29.0756 O   0  0  0  0  0  0  0  0  0  0  0  0
    1.8554   -5.7972   28.6351 C   0  0  0  0  0  0  0  0  0  0  0  0
    4.9307  -11.8169   15.0019 B   0  0  0  0  0  0  0  0  0  0  0  0
    3.8681   -5.6937   29.6697 C   0  0  0  0  0  0  0  0  0  0  0  0
    1.6580  -13.9544   14.5680 N   0  0  0  0  0  0  0  0  0  0  0  0
    6.6504   -8.0737   17.6040 C   0  0  0  0  0  0  0  0  0  0  0  0
   -0.7899   -5.3188   27.2595 C   0  0  0  0  0  0  0  0  0  0  0  0
    3.6598   -5.2819   30.6645 O   0  0  0  0  0  0  0  0  0  0  0  0
    2.8763  -13.1036   14.9721 C   0  0  0  0  0  0  0  0  0  0  0  0
    2.6968   -5.4014   26.2045 O   0  0  0  0  0  0  0  0  0  0  0  0
    3.7644  -12.8015   14.2310 He  0  0  0  0  0  0  0  0  0  0  0  0
  1 12  2  0
  1 15  4  0
  1 17  4  0
  1 22  4  0
  2 17  1  0
  2 24  1  0
  3  6  4  0
  3  8  4  0
  3 15  3  0
  3 21  3  0
  3 23  4  0
  4 10  2  0
  4 12  1  0
  4 13  1  0
  4 20  4  0
  5  6  3  0
  5  7  4  0
  5 23  4  0
  6 15  2  0
  6 19  1  0
  6 21  1  0
  7 12  4  0
  8 26  1  0
  9 19  1  0
  9 27  2  0
 10 13  4  0
 11 14  1  0
 11 17  1  0
 11 27  4  0
 13 15  4  0
 13 26  4  0
 14 16  1  0
 14 23  3  0
 16 24  1  0
 16 25  3  0
 16 26  3  0
 16 27  2  0
 17 24  4  0
 18 21  2  0
 19 23  1  0
 21 25  2  0
 22 26  4  0
 26 27  4  0
M  END
$$$$

 Created by Python create_sdf_string function

 28 30  0  0  0  0  0  0  0  0999 V2000
    0.7943  -13.9292   15.6451 C   0  0  0  0  0  0  0  0  0  0  0  0
    0.5042   -4.7181   26.8892 N   0  0  0  0  0  0  0  0  0  0  0  0
    5.6306   -8.5021   18.5017 C   0  0  0  0  0  0  0  0  0  0  0  0
    4.4929  -11.2886   16.3238 C   0  0  0  0  0  0  0  0  0  0  0  0
    7.2303   -8.7911   16.7888 C   0  0  0  0  0  0  0  0  0  0  0  0
    3.0335   -6.5064   28.8555 C   0  0  0  0  0  0  0  0  0  0  0  0
    6.5955   -9.9151   16.3226 C   0  0  0  0  0  0  0  0  0  0  0  0
    4.9284   -9.6519   18.0517 C   0  0  0  0  0  0  0  0  0  0  0  0
    1.6905   -5.3023   27.1794 C   0  0  0  0  0  0  0  0  0  0  0  0
    3.3104  -11.7317   16.9626 C   0  0  0  0  0  0  0  0  0  0  0  0
   -0.5918   -2.5400   27.0243 C   0  0  0  0  0  0  0  0  0  0  0  0
    5.3307  -10.3092   16.9162 C   0  0  0  0  0  0  0  0  0  0  0  0
    2.4712  -12.5694   16.3254 C   0  0  0  0  0  0  0  0  0  0  0  0
   -1.9049   -3.1931   26.8495 C   0  0  0  0  0  0  0  0  0  0  0  0
    1.2214  -13.1096   16.7242 N   0  0  0  0  0  0  0  0  0  0  0  0
   -1.9407   -4.6085   27.0064 C   0  0  0  0  0  0  0  0  0  0  0  0
    0.5377   -3.3370   26.4242 C   0  0  0  0  0  0  0  0  0  0  0  0
    3.9150  -12.7062   14.3539 C   0  0  0  0  0  0  0  0  0  0  0  0
    5.1166   -5.5107   29.1155 O   0  0  0  0  0  0  0  0  0  0  0  0
    1.7962   -5.8348   28.5541 C   0  0  0  0  0  0  0  0  0  0  0  0
    4.8018  -11.8100   15.0466 C   0  0  0  0  0  0  0  0  0  0  0  0
    3.9998   -5.6867   29.6173 C   0  0  0  0  0  0  0  0  0  0  0  0
    1.7253  -13.9090   14.6366 N   0  0  0  0  0  0  0  0  0  0  0  0
    6.7620   -8.0781   17.8409 C   0  0  0  0  0  0  0  0  0  0  0  0
   -0.7094   -5.3220   27.3010 C   0  0  0  0  0  0  0  0  0  0  0  0
    3.6548   -5.2671   30.6982 O   0  0  0  0  0  0  0  0  0  0  0  0
    2.7517  -13.0734   15.0252 C   0  0  0  0  0  0  0  0  0  0  0  0
    2.5773   -5.3946   26.3760 O   0  0  0  0  0  0  0  0  0  0  0  0
  1 15  4  0
  1 23  4  0
  2  9  1  0
  2 17  1  0
  2 25  1  0
  3  8  4  0
  3 24  4  0
  4 10  4  0
  4 12  1  0
  4 21  4  0
  5  7  4  0
  5 24  4  0
  6 20  1  0
  6 22  1  0
  7 12  4  0
  8 12  4  0
  9 20  1  0
  9 28  2  0
 10 13  4  0
 11 14  1  0
 11 17  1  0
 13 15  4  0
 13 27  4  0
 14 16  1  0
 16 25  1  0
 18 21  4  0
 18 27  4  0
 19 22  2  0
 22 26  2  0
 23 27  4  0
M  END
$$$$

 Created by Python create_sdf_string function

 28 36  0  0  0  0  0  0  0  0999 V2000
    0.9823  -13.7092   15.6564 C   0  0  0  0  0  0  0  0  0  0  0  0
    0.4261   -4.7186   26.6101 N   0  0  0  0  0  0  0  0  0  0  0  0
    5.6893   -8.4624   18.0753 C   0  0  0  0  0  0  0  0  0  0  0  0
    4.2812  -11.4134   16.3934 C   0  0  0  0  0  0  0  0  0  0  0  0
    7.2178   -8.8647   16.8098 C   0  0  0  0  0  0  0  0  0  0  0  0
    3.0755   -6.5166   29.0058 C   0  0  0  0  0  0  0  0  0  0  0  0
    6.5823   -9.9092   16.1806 C   0  0  0  0  0  0  0  0  0  0  0  0
    4.8727   -9.8001   18.0619 C   0  0  0  0  0  0  0  0  0  0  0  0
    1.4893   -5.4356   26.9959 C   0  0  0  0  0  0  0  0  0  0  0  0
    3.1065  -11.8385   17.0190 C   0  0  0  0  0  0  0  0  0  0  0  0
   -0.6897   -2.3861   27.0776 C   0  0  0  0  0  0  0  0  0  0  0  0
    5.3364  -10.4208   16.9572 C   0  0  0  0  0  0  0  0  0  0  0  0
    2.7961  -12.4190   16.3777 C   0  0  0  0  0  0  0  0  0  0  0  0
   -2.0455   -3.1490   26.8592 N   0  0  0  0  0  0  0  0  0  0  0  0
    1.1722  -13.1782   17.1336 N   0  0  0  0  0  0  0  0  0  0  0  0
   -1.9820   -4.5462   27.0184 C   0  0  0  0  0  0  0  0  0  0  0  0
    0.5887   -3.4736   26.2338 C   0  0  0  0  0  0  0  0  0  0  0  0
    3.8976  -12.4322   14.4905 C   0  0  0  0  0  0  0  0  0  0  0  0
    5.3671   -5.4447   28.9069 O   0  0  0  0  0  0  0  0  0  0  0  0
    1.6985   -5.8465   28.8777 C   0  0  0  0  0  0  0  0  0  0  0  0
    3.8799   -5.8420   29.8937 C   0  0  0  0  0  0  0  0  0  0  0  0
    1.5543  -14.0075   14.6306 N   0  0  0  0  0  0  0  0  0  0  0  0
    6.8849   -8.0799   18.0671 C   0  0  0  0  0  0  0  0  0  0  0  0
   -0.4998   -5.4240   27.3763 C   0  0  0  0  0  0  0  0  0  0  0  0
    3.6552   -5.0150   30.6951 Cl  0  0  0  0  0  0  0  0  0  0  0  0
    2.9091  -13.0708   14.9879 C   0  0  0  0  0  0  0  0  0  0  0  0
    4.9471  -11.8561   15.2146 He  0  0  0  0  0  0  0  0  0  0  0  0
    2.5229   -5.4054   26.5343 He  0  0  0  0  0  0  0  0  0  0  0  0
  1  5  4  0
  1 15  1  0
  1 22  4  0
  2  9  1  0
  2 17  2  0
  2 24  1  0
  3  8  4  0
  3 23  2  0
  4 10  4  0
  4 12  1  0
  5  7  4  0
  5 23  4  0
  5 24  4  0
  6 20  1  0
  6 21  1  0
  6 24  3  0
  7 12  4  0
  7 21  3  0
  8 14  1  0
  9 20  1  0
 10 13  4  0
 11 14  1  0
 11 17  1  0
 11 24  3  0
 12 14  3  0
 13 15  4  0
 13 16  4  0
 13 26  4  0
 14 16  1  0
 15 20  2  0
 16 24  1  0
 18 26  4  0
 19 21  2  0
 21 25  2  0
 22 26  4  0
 24 25  2  0
M  END
$$$$

 Created by Python create_sdf_string function

 28 30  0  0  0  0  0  0  0  0999 V2000
    0.8492  -13.8784   15.7464 C   0  0  0  0  0  0  0  0  0  0  0  0
    0.4417   -4.7670   26.9508 N   0  0  0  0  0  0  0  0  0  0  0  0
    5.7140   -8.5005   18.4909 C   0  0  0  0  0  0  0  0  0  0  0  0
    4.5001  -11.2679   16.3551 C   0  0  0  0  0  0  0  0  0  0  0  0
    7.2831   -8.8848   16.7771 C   0  0  0  0  0  0  0  0  0  0  0  0
    3.0391   -6.5180   28.9312 C   0  0  0  0  0  0  0  0  0  0  0  0
    6.5766   -9.9432   16.3177 C   0  0  0  0  0  0  0  0  0  0  0  0
    4.9022   -9.5748   18.0072 C   0  0  0  0  0  0  0  0  0  0  0  0
    1.6497   -5.3521   27.2534 C   0  0  0  0  0  0  0  0  0  0  0  0
    3.3718  -11.7616   17.0532 C   0  0  0  0  0  0  0  0  0  0  0  0
   -0.6307   -2.5579   26.9674 C   0  0  0  0  0  0  0  0  0  0  0  0
    5.3014  -10.2806   16.8945 C   0  0  0  0  0  0  0  0  0  0  0  0
    2.5262  -12.5759   16.3931 C   0  0  0  0  0  0  0  0  0  0  0  0
   -1.9658   -3.1722   26.8453 N   0  0  0  0  0  0  0  0  0  0  0  0
    1.3027  -13.1378   16.7973 N   0  0  0  0  0  0  0  0  0  0  0  0
   -2.0153   -4.5841   26.9708 C   0  0  0  0  0  0  0  0  0  0  0  0
    0.4365   -3.4650   26.4058 C   0  0  0  0  0  0  0  0  0  0  0  0
    3.9196  -12.6964   14.4112 C   0  0  0  0  0  0  0  0  0  0  0  0
    5.1441   -5.5246   29.1063 O   0  0  0  0  0  0  0  0  0  0  0  0
    1.7725   -5.8700   28.6370 C   0  0  0  0  0  0  0  0  0  0  0  0
    4.7823  -11.7815   15.0712 C   0  0  0  0  0  0  0  0  0  0  0  0
    4.0090   -5.6260   29.6355 C   0  0  0  0  0  0  0  0  0  0  0  0
    1.6940  -13.8359   14.6906 N   0  0  0  0  0  0  0  0  0  0  0  0
    6.8618   -8.1327   17.8265 C   0  0  0  0  0  0  0  0  0  0  0  0
   -0.7878   -5.3078   27.4049 C   0  0  0  0  0  0  0  0  0  0  0  0
    3.6219   -5.0949   30.6674 O   0  0  0  0  0  0  0  0  0  0  0  0
    2.7631  -13.0287   15.0998 C   0  0  0  0  0  0  0  0  0  0  0  0
    2.5500   -5.4597   26.4644 O   0  0  0  0  0  0  0  0  0  0  0  0
  1 15  4  0
  1 23  4  0
  2  9  1  0
  2 17  1  0
  2 25  1  0
  3  8  4  0
  3 24  4  0
  4 10  4  0
  4 12  1  0
  4 21  4  0
  5  7  4  0
  5 24  4  0
  6 20  1  0
  6 22  1  0
  7 12  4  0
  8 12  4  0
  9 20  1  0
  9 28  2  0
 10 13  4  0
 11 14  1  0
 11 17  1  0
 13 15  4  0
 13 27  4  0
 14 16  1  0
 16 25  1  0
 18 21  4  0
 18 27  4  0
 19 22  1  0
 22 26  2  0
 23 27  4  0
M  END
$$$$

 Created by Python create_sdf_string function

 28 40  0  0  0  0  0  0  0  0999 V2000
    0.8847  -13.7379   15.7060 C   0  0  0  0  0  0  0  0  0  0  0  0
    0.2449   -4.8205   26.9590 N   0  0  0  0  0  0  0  0  0  0  0  0
    5.9179   -8.4274   18.7246 C   0  0  0  0  0  0  0  0  0  0  0  0
    4.4544  -11.4741   16.4284 C   0  0  0  0  0  0  0  0  0  0  0  0
    7.3924   -8.9190   16.8969 C   0  0  0  0  0  0  0  0  0  0  0  0
    2.9748   -6.4207   29.0479 C   0  0  0  0  0  0  0  0  0  0  0  0
    6.7403  -10.0185   16.2936 C   0  0  0  0  0  0  0  0  0  0  0  0
    4.8497   -9.4553   18.2133 C   0  0  0  0  0  0  0  0  0  0  0  0
    1.4988   -5.3299   27.1649 C   0  0  0  0  0  0  0  0  0  0  0  0
    3.3232  -11.6715   17.0994 C   0  0  0  0  0  0  0  0  0  0  0  0
   -0.7019   -2.6426   26.9805 P   0  0  0  0  0  0  0  0  0  0  0  0
    5.2553  -10.2617   16.7973 C   0  0  0  0  0  0  0  0  0  0  0  0
    2.3327  -12.3271   16.3708 C   0  0  0  0  0  0  0  0  0  0  0  0
   -1.7209   -3.2820   26.7203 N   0  0  0  0  0  0  0  0  0  0  0  0
    1.4179  -13.1730   16.7579 C   0  0  0  0  0  0  0  0  0  0  0  0
   -2.1345   -4.6188   26.9695 C   0  0  0  0  0  0  0  0  0  0  0  0
    0.4358   -3.5923   26.4589 C   0  0  0  0  0  0  0  0  0  0  0  0
    3.9247  -12.7573   14.3773 C   0  0  0  0  0  0  0  0  0  0  0  0
    5.1102   -5.4266   29.2356 O   0  0  0  0  0  0  0  0  0  0  0  0
    2.0499   -5.7135   28.7018 C   0  0  0  0  0  0  0  0  0  0  0  0
    4.7990  -11.7626   15.0359 C   0  0  0  0  0  0  0  0  0  0  0  0
    4.0727   -5.6943   29.7817 C   0  0  0  0  0  0  0  0  0  0  0  0
    1.7387  -13.6834   14.6379 N   0  0  0  0  0  0  0  0  0  0  0  0
   -0.6322   -5.2710   27.1815 C   0  0  0  0  0  0  0  0  0  0  0  0
    3.6019   -5.0955   30.7365 O   0  0  0  0  0  0  0  0  0  0  0  0
    2.8711  -12.8906   15.3117 C   0  0  0  0  0  0  0  0  0  0  0  0
    2.4862   -5.4318   26.5160 O   0  0  0  0  0  0  0  0  0  0  0  0
    6.8294   -8.1412   17.8269 He  0  0  0  0  0  0  0  0  0  0  0  0
  1 15  4  0
  1 23  4  0
  2  9  1  0
  2 14  3  0
  2 17  1  0
  2 18  1  0
  2 24  1  0
  3  5  3  0
  3  8  4  0
  3 23  1  0
  3 24  2  0
  3 26  1  0
  3 27  3  0
  4 10  4  0
  4 12  1  0
  4 25  2  0
  5 14  1  0
  6 22  1  0
  6 24  4  0
  7 10  1  0
  7 12  4  0
  8 11  4  0
  8 12  4  0
  9 20  1  0
  9 27  2  0
 10 13  4  0
 10 23  4  0
 11 14  1  0
 11 17  1  0
 12 22  4  0
 13 24  2  0
 13 26  4  0
 14 16  1  0
 16 22  1  0
 18 21  4  0
 18 23  4  0
 18 26  4  0
 19 22  1  0
 22 25  2  0
 23 26  4  0
M  END
$$$$

 Created by Python create_sdf_string function

 28 30  0  0  0  0  0  0  0  0999 V2000
    0.7978  -13.8254   15.7055 C   0  0  0  0  0  0  0  0  0  0  0  0
    0.3959   -4.7584   27.0175 N   0  0  0  0  0  0  0  0  0  0  0  0
    5.7991   -8.4840   18.5554 C   0  0  0  0  0  0  0  0  0  0  0  0
    4.5374  -11.1949   16.3643 C   0  0  0  0  0  0  0  0  0  0  0  0
    7.4049   -8.8743   16.8509 C   0  0  0  0  0  0  0  0  0  0  0  0
    3.0471   -6.4181   28.9496 C   0  0  0  0  0  0  0  0  0  0  0  0
    6.6508   -9.9128   16.3323 C   0  0  0  0  0  0  0  0  0  0  0  0
    5.0025   -9.5543   18.0710 C   0  0  0  0  0  0  0  0  0  0  0  0
    1.5945   -5.3401   27.2821 C   0  0  0  0  0  0  0  0  0  0  0  0
    3.3542  -11.6407   17.0035 C   0  0  0  0  0  0  0  0  0  0  0  0
   -0.6969   -2.6369   26.9402 C   0  0  0  0  0  0  0  0  0  0  0  0
    5.3776  -10.2406   16.9289 C   0  0  0  0  0  0  0  0  0  0  0  0
    2.5068  -12.5039   16.4009 N   0  0  0  0  0  0  0  0  0  0  0  0
   -1.9631   -3.2464   26.6994 N   0  0  0  0  0  0  0  0  0  0  0  0
    1.2568  -13.0494   16.7867 C   0  0  0  0  0  0  0  0  0  0  0  0
   -2.0443   -4.6355   26.9344 C   0  0  0  0  0  0  0  0  0  0  0  0
    0.4526   -3.4433   26.4725 C   0  0  0  0  0  0  0  0  0  0  0  0
    3.9140  -12.6290   14.4392 C   0  0  0  0  0  0  0  0  0  0  0  0
    5.1306   -5.4906   29.2575 O   0  0  0  0  0  0  0  0  0  0  0  0
    1.8201   -5.7122   28.6820 C   0  0  0  0  0  0  0  0  0  0  0  0
    4.8410  -11.7676   15.1020 C   0  0  0  0  0  0  0  0  0  0  0  0
    3.9872   -5.6036   29.7522 C   0  0  0  0  0  0  0  0  0  0  0  0
    1.7300  -13.7497   14.6660 N   0  0  0  0  0  0  0  0  0  0  0  0
    6.9877   -8.1846   17.9359 C   0  0  0  0  0  0  0  0  0  0  0  0
   -0.8034   -5.3468   27.2761 C   0  0  0  0  0  0  0  0  0  0  0  0
    3.6384   -5.1272   30.7705 O   0  0  0  0  0  0  0  0  0  0  0  0
    2.7682  -12.9591   15.1204 C   0  0  0  0  0  0  0  0  0  0  0  0
    2.4464   -5.4888   26.4423 O   0  0  0  0  0  0  0  0  0  0  0  0
  1 15  4  0
  1 23  4  0
  2  9  1  0
  2 17  1  0
  2 25  1  0
  3  8  4  0
  3 24  4  0
  4 10  4  0
  4 12  1  0
  4 21  4  0
  5  7  4  0
  5 24  4  0
  6 20  1  0
  6 22  1  0
  7 12  4  0
  8 12  4  0
  9 20  1  0
  9 28  2  0
 10 13  4  0
 11 14  1  0
 11 17  1  0
 13 15  4  0
 13 27  4  0
 14 16  1  0
 16 25  1  0
 18 21  4  0
 18 27  4  0
 19 22  1  0
 22 26  2  0
 23 27  4  0
M  END
$$$$

 Created by Python create_sdf_string function

 28 44  0  0  0  0  0  0  0  0999 V2000
    0.7501  -13.9195   15.6915 C   0  0  0  0  0  0  0  0  0  0  0  0
    0.4510   -4.6437   26.9427 N   0  0  0  0  0  0  0  0  0  0  0  0
    5.8801   -8.6608   18.3711 C   0  0  0  0  0  0  0  0  0  0  0  0
    4.4049  -11.2144   16.3978 C   0  0  0  0  0  0  0  0  0  0  0  0
    7.5072   -8.8523   16.9558 C   0  0  0  0  0  0  0  0  0  0  0  0
    2.9876   -6.3428   28.8537 C   0  0  0  0  0  0  0  0  0  0  0  0
    6.6920   -9.9524   16.2603 C   0  0  0  0  0  0  0  0  0  0  0  0
    4.9755   -9.7248   17.8284 C   0  0  0  0  0  0  0  0  0  0  0  0
    1.4946   -5.3769   27.1225 C   0  0  0  0  0  0  0  0  0  0  0  0
    3.2313  -11.6441   17.1369 C   0  0  0  0  0  0  0  0  0  0  0  0
   -1.0098   -2.7544   27.0791 C   0  0  0  0  0  0  0  0  0  0  0  0
    5.4224  -10.3552   16.7170 C   0  0  0  0  0  0  0  0  0  0  0  0
    2.3825  -12.7614   16.4811 N   0  0  0  0  0  0  0  0  0  0  0  0
   -1.9945   -3.3210   26.6842 N   0  0  0  0  0  0  0  0  0  0  0  0
    1.1418  -13.2099   16.8750 P   0  0  0  0  0  0  0  0  0  0  0  0
   -2.0724   -4.5828   26.9858 C   0  0  0  0  0  0  0  0  0  0  0  0
    0.6562   -3.5142   26.4683 C   0  0  0  0  0  0  0  0  0  0  0  0
    3.7414  -12.6699   14.5188 C   0  0  0  0  0  0  0  0  0  0  0  0
    4.9910   -5.2279   28.9403 O   0  0  0  0  0  0  0  0  0  0  0  0
    1.9866   -5.8594   28.6430 C   0  0  0  0  0  0  0  0  0  0  0  0
    4.8941  -11.6868   14.7654 Cl  0  0  0  0  0  0  0  0  0  0  0  0
    3.9034   -5.6870   29.6589 C   0  0  0  0  0  0  0  0  0  0  0  0
    1.6932  -13.5868   14.7756 N   0  0  0  0  0  0  0  0  0  0  0  0
    7.0647   -8.3616   18.2257 C   0  0  0  0  0  0  0  0  0  0  0  0
   -0.9274   -5.3224   27.1409 C   0  0  0  0  0  0  0  0  0  0  0  0
    3.6734   -5.1526   30.7990 O   0  0  0  0  0  0  0  0  0  0  0  0
    2.8365  -12.8616   15.2426 C   0  0  0  0  0  0  0  0  0  0  0  0
    2.5382   -5.4460   26.6343 O   0  0  0  0  0  0  0  0  0  0  0  0
  1 15  4  0
  1 21  2  0
  1 23  4  0
  1 24  1  0
  2  3  4  0
  2  9  1  0
  2 11  1  0
  2 17  1  0
  2 25  1  0
  3  8  4  0
  3 14  1  0
  3 24  4  0
  4  9  1  0
  4 10  4  0
  4 12  1  0
  4 21  4  0
  5  7  4  0
  5 15  2  0
  5 16  3  0
  5 24  4  0
  6 20  1  0
  6 22  1  0
  6 26  3  0
  7 12  4  0
  8 12  4  0
  9 20  1  0
  9 25  4  0
  9 28  2  0
 10 13  4  0
 11 14  2  0
 11 17  1  0
 13 15  4  0
 13 26  2  0
 14 16  1  0
 16 20  2  0
 16 25  1  0
 16 28  2  0
 18 21  4  0
 18 27  4  0
 19 22  1  0
 20 26  3  0
 22 25  4  0
 22 26  2  0
 23 27  4  0
M  END
$$$$

 Created by Python create_sdf_string function

 28 30  0  0  0  0  0  0  0  0999 V2000
    0.7634  -13.8604   15.7751 C   0  0  0  0  0  0  0  0  0  0  0  0
    0.3683   -4.7382   27.0205 N   0  0  0  0  0  0  0  0  0  0  0  0
    5.8353   -8.6375   18.5753 C   0  0  0  0  0  0  0  0  0  0  0  0
    4.4898  -11.2307   16.3035 C   0  0  0  0  0  0  0  0  0  0  0  0
    7.4618   -9.0104   16.8886 C   0  0  0  0  0  0  0  0  0  0  0  0
    3.0366   -6.4529   28.8974 C   0  0  0  0  0  0  0  0  0  0  0  0
    6.6710   -9.9300   16.2979 C   0  0  0  0  0  0  0  0  0  0  0  0
    4.9825   -9.6044   17.9912 C   0  0  0  0  0  0  0  0  0  0  0  0
    1.5735   -5.3335   27.2689 C   0  0  0  0  0  0  0  0  0  0  0  0
    3.3300  -11.7110   17.0393 C   0  0  0  0  0  0  0  0  0  0  0  0
   -0.8159   -2.6334   26.9397 C   0  0  0  0  0  0  0  0  0  0  0  0
    5.3547  -10.2734   16.8507 C   0  0  0  0  0  0  0  0  0  0  0  0
    2.4470  -12.5320   16.4928 N   0  0  0  0  0  0  0  0  0  0  0  0
   -2.0328   -3.2459   26.7009 N   0  0  0  0  0  0  0  0  0  0  0  0
    1.2360  -13.1538   16.9019 C   0  0  0  0  0  0  0  0  0  0  0  0
   -2.0883   -4.6447   26.9406 C   0  0  0  0  0  0  0  0  0  0  0  0
    0.4061   -3.3813   26.5847 C   0  0  0  0  0  0  0  0  0  0  0  0
    3.7802  -12.6190   14.4317 C   0  0  0  0  0  0  0  0  0  0  0  0
    5.0024   -5.2389   29.0065 O   0  0  0  0  0  0  0  0  0  0  0  0
    1.7481   -5.8305   28.6324 C   0  0  0  0  0  0  0  0  0  0  0  0
    4.7393  -11.7092   15.0333 C   0  0  0  0  0  0  0  0  0  0  0  0
    3.9499   -5.5477   29.6409 C   0  0  0  0  0  0  0  0  0  0  0  0
    1.6621  -13.7385   14.7419 N   0  0  0  0  0  0  0  0  0  0  0  0
    7.0541   -8.3334   18.0202 C   0  0  0  0  0  0  0  0  0  0  0  0
   -0.8428   -5.3647   27.1762 C   0  0  0  0  0  0  0  0  0  0  0  0
    3.6682   -5.2114   30.7472 O   0  0  0  0  0  0  0  0  0  0  0  0
    2.6842  -12.9643   15.1538 C   0  0  0  0  0  0  0  0  0  0  0  0
    2.4466   -5.4393   26.4734 O   0  0  0  0  0  0  0  0  0  0  0  0
  1 15  4  0
  1 23  4  0
  2  9  1  0
  2 17  1  0
  2 25  1  0
  3  8  4  0
  3 24  4  0
  4 10  4  0
  4 12  1  0
  4 21  4  0
  5  7  4  0
  5 24  4  0
  6 20  1  0
  6 22  1  0
  7 12  4  0
  8 12  4  0
  9 20  1  0
  9 28  2  0
 10 13  4  0
 11 14  1  0
 11 17  1  0
 13 15  4  0
 13 27  4  0
 14 16  1  0
 16 25  1  0
 18 21  4  0
 18 27  4  0
 19 22  1  0
 22 26  2  0
 23 27  4  0
M  END
$$$$

 Created by Python create_sdf_string function

 28 42  0  0  0  0  0  0  0  0999 V2000
    0.6339  -13.9845   15.9346 C   0  0  0  0  0  0  0  0  0  0  0  0
    0.3822   -4.6367   27.0329 N   0  0  0  0  0  0  0  0  0  0  0  0
    5.6838   -8.7279   18.5566 C   0  0  0  0  0  0  0  0  0  0  0  0
    4.6710  -11.3655   16.5118 C   0  0  0  0  0  0  0  0  0  0  0  0
    7.4569   -8.8917   16.9226 C   0  0  0  0  0  0  0  0  0  0  0  0
    3.0119   -6.2494   28.7443 C   0  0  0  0  0  0  0  0  0  0  0  0
    6.6896   -9.9796   16.1498 C   0  0  0  0  0  0  0  0  0  0  0  0
    5.0751   -9.7188   18.0369 C   0  0  0  0  0  0  0  0  0  0  0  0
    1.6638   -5.5200   27.3024 C   0  0  0  0  0  0  0  0  0  0  0  0
    3.4356  -11.7616   17.0747 C   0  0  0  0  0  0  0  0  0  0  0  0
   -0.9842   -2.6174   26.9698 C   0  0  0  0  0  0  0  0  0  0  0  0
    5.3514  -10.2627   16.8222 C   0  0  0  0  0  0  0  0  0  0  0  0
    2.5366  -12.4593   16.4947 N   0  0  0  0  0  0  0  0  0  0  0  0
   -1.9983   -3.3434   26.7609 N   0  0  0  0  0  0  0  0  0  0  0  0
    0.9510  -13.2727   16.7895 C   0  0  0  0  0  0  0  0  0  0  0  0
   -2.1069   -4.5759   27.0030 C   0  0  0  0  0  0  0  0  0  0  0  0
    0.3628   -3.3025   26.6169 C   0  0  0  0  0  0  0  0  0  0  0  0
    3.7834  -12.6769   14.1907 C   0  0  0  0  0  0  0  0  0  0  0  0
    4.9655   -5.2803   28.9608 O   0  0  0  0  0  0  0  0  0  0  0  0
    1.8214   -5.8247   28.5844 C   0  0  0  0  0  0  0  0  0  0  0  0
    4.7847  -11.7266   15.0683 C   0  0  0  0  0  0  0  0  0  0  0  0
    3.9226   -5.5763   29.5199 C   0  0  0  0  0  0  0  0  0  0  0  0
    1.7250  -13.7137   14.6505 N   0  0  0  0  0  0  0  0  0  0  0  0
    7.1033   -8.3593   18.0984 C   0  0  0  0  0  0  0  0  0  0  0  0
   -0.7759   -5.2188   27.4089 C   0  0  0  0  0  0  0  0  0  0  0  0
    3.6168   -5.2161   30.6346 O   0  0  0  0  0  0  0  0  0  0  0  0
    2.7224  -12.8551   15.1040 C   0  0  0  0  0  0  0  0  0  0  0  0
    2.5517   -5.4805   26.4727 O   0  0  0  0  0  0  0  0  0  0  0  0
  1 15  4  0
  1 22  2  0
  1 23  4  0
  2  9  2  0
  2 17  1  0
  2 25  1  0
  3  5  1  0
  3 24  4  0
  4 10  4  0
  4 12  1  0
  4 21  4  0
  4 22  4  0
  5  6  1  0
  5  7  1  0
  5 24  4  0
  6 20  1  0
  6 22  1  0
  7 12  4  0
  7 21  1  0
  8 12  4  0
  9 20  1  0
  9 28  2  0
 10 13  4  0
 11 14  1  0
 11 16  2  0
 11 17  1  0
 13 15  4  0
 13 27  4  0
 14 16  1  0
 15 20  2  0
 16 25  1  0
 16 28  1  0
 17 25  2  0
 18 21  4  0
 18 27  4  0
 19 21  4  0
 19 22  1  0
 22 23  4  0
 22 26  1  0
 23 27  4  0
 24 26  1  0
 27 28  1  0
M  END
$$$$

 Created by Python create_sdf_string function

 28 30  0  0  0  0  0  0  0  0999 V2000
    0.7291  -13.9012   15.7860 C   0  0  0  0  0  0  0  0  0  0  0  0
    0.3530   -4.6730   27.0680 N   0  0  0  0  0  0  0  0  0  0  0  0
    5.8514   -8.6654   18.6201 C   0  0  0  0  0  0  0  0  0  0  0  0
    4.5539  -11.2683   16.3313 C   0  0  0  0  0  0  0  0  0  0  0  0
    7.4508   -8.9447   16.8585 C   0  0  0  0  0  0  0  0  0  0  0  0
    3.0732   -6.3987   28.8125 C   0  0  0  0  0  0  0  0  0  0  0  0
    6.6726   -9.9083   16.2855 C   0  0  0  0  0  0  0  0  0  0  0  0
    5.0342   -9.6727   18.0655 C   0  0  0  0  0  0  0  0  0  0  0  0
    1.5519   -5.3060   27.2578 C   0  0  0  0  0  0  0  0  0  0  0  0
    3.3849  -11.7679   17.0331 C   0  0  0  0  0  0  0  0  0  0  0  0
   -0.8800   -2.5661   26.9601 C   0  0  0  0  0  0  0  0  0  0  0  0
    5.3972  -10.3111   16.9070 C   0  0  0  0  0  0  0  0  0  0  0  0
    2.4638  -12.5602   16.4612 N   0  0  0  0  0  0  0  0  0  0  0  0
   -2.0685   -3.2896   26.7125 N   0  0  0  0  0  0  0  0  0  0  0  0
    1.2310  -13.1171   16.8673 C   0  0  0  0  0  0  0  0  0  0  0  0
   -2.0767   -4.6532   26.9875 C   0  0  0  0  0  0  0  0  0  0  0  0
    0.3425   -3.3298   26.6070 C   0  0  0  0  0  0  0  0  0  0  0  0
    3.8023  -12.6014   14.3768 C   0  0  0  0  0  0  0  0  0  0  0  0
    5.0532   -5.2485   28.9693 O   0  0  0  0  0  0  0  0  0  0  0  0
    1.7576   -5.8429   28.5829 C   0  0  0  0  0  0  0  0  0  0  0  0
    4.7554  -11.7778   15.0408 C   0  0  0  0  0  0  0  0  0  0  0  0
    3.9837   -5.5378   29.5342 C   0  0  0  0  0  0  0  0  0  0  0  0
    1.6311  -13.7584   14.7230 N   0  0  0  0  0  0  0  0  0  0  0  0
    7.0563   -8.3192   18.0126 C   0  0  0  0  0  0  0  0  0  0  0  0
   -0.8598   -5.2851   27.4472 C   0  0  0  0  0  0  0  0  0  0  0  0
    3.6176   -5.2146   30.6705 O   0  0  0  0  0  0  0  0  0  0  0  0
    2.6848  -12.9644   15.1279 C   0  0  0  0  0  0  0  0  0  0  0  0
    2.4121   -5.4577   26.4461 O   0  0  0  0  0  0  0  0  0  0  0  0
  1 15  4  0
  1 23  4  0
  2  9  1  0
  2 17  1  0
  2 25  1  0
  3  8  4  0
  3 24  4  0
  4 10  4  0
  4 12  1  0
  4 21  4  0
  5  7  4  0
  5 24  4  0
  6 20  1  0
  6 22  1  0
  7 12  4  0
  8 12  4  0
  9 20  1  0
  9 28  2  0
 10 13  4  0
 11 14  1  0
 11 17  1  0
 13 15  4  0
 13 27  4  0
 14 16  1  0
 16 25  1  0
 18 21  4  0
 18 27  4  0
 19 22  1  0
 22 26  1  0
 23 27  4  0
M  END
$$$$

 Created by Python create_sdf_string function

 28 38  0  0  0  0  0  0  0  0999 V2000
    0.8127  -13.8646   15.8628 C   0  0  0  0  0  0  0  0  0  0  0  0
    0.3706   -4.5874   27.1323 N   0  0  0  0  0  0  0  0  0  0  0  0
    5.7125   -8.6677   18.6346 C   0  0  0  0  0  0  0  0  0  0  0  0
    4.4975  -11.1389   16.3218 C   0  0  0  0  0  0  0  0  0  0  0  0
    7.5157   -8.9619   16.8592 C   0  0  0  0  0  0  0  0  0  0  0  0
    3.0413   -6.2625   28.6827 C   0  0  0  0  0  0  0  0  0  0  0  0
    6.7427   -9.7133   16.3377 C   0  0  0  0  0  0  0  0  0  0  0  0
    5.0390   -9.5983   18.1090 C   0  0  0  0  0  0  0  0  0  0  0  0
    1.6286   -5.1793   27.3978 C   0  0  0  0  0  0  0  0  0  0  0  0
    3.3581  -11.8040   17.1938 C   0  0  0  0  0  0  0  0  0  0  0  0
   -0.8350   -2.5665   26.9630 Cl  0  0  0  0  0  0  0  0  0  0  0  0
    5.4427  -10.4938   17.1098 C   0  0  0  0  0  0  0  0  0  0  0  0
    2.4124  -12.6051   16.3900 N   0  0  0  0  0  0  0  0  0  0  0  0
   -2.0323   -3.3561   26.7387 N   0  0  0  0  0  0  0  0  0  0  0  0
    1.3376  -13.1378   16.7099 C   0  0  0  0  0  0  0  0  0  0  0  0
   -2.2030   -4.6167   27.1060 C   0  0  0  0  0  0  0  0  0  0  0  0
    0.2337   -3.3462   26.5979 C   0  0  0  0  0  0  0  0  0  0  0  0
    3.7785  -12.7342   14.3727 C   0  0  0  0  0  0  0  0  0  0  0  0
    5.0486   -5.1775   29.0083 O   0  0  0  0  0  0  0  0  0  0  0  0
    1.9305   -5.8294   28.5345 C   0  0  0  0  0  0  0  0  0  0  0  0
    4.7905  -11.9292   15.1209 C   0  0  0  0  0  0  0  0  0  0  0  0
    3.9699   -5.5544   29.5850 C   0  0  0  0  0  0  0  0  0  0  0  0
    1.4837  -13.8342   14.7818 N   0  0  0  0  0  0  0  0  0  0  0  0
    7.0162   -8.5302   18.1040 C   0  0  0  0  0  0  0  0  0  0  0  0
   -0.8772   -5.1929   27.4088 C   0  0  0  0  0  0  0  0  0  0  0  0
    3.7786   -5.4063   30.5652 O   0  0  0  0  0  0  0  0  0  0  0  0
    2.6859  -12.7940   15.1480 N   0  0  0  0  0  0  0  0  0  0  0  0
    2.3323   -5.5104   26.4814 O   0  0  0  0  0  0  0  0  0  0  0  0
  2  7  3  0
  2  9  1  0
  2 17  2  0
  2 25  1  0
  3  8  4  0
  3 18  4  0
  3 24  4  0
  4 10  4  0
  4 21  4  0
  4 24  4  0
  5  7  4  0
  5 18  4  0
  5 24  4  0
  6 13  1  0
  6 20  1  0
  6 22  1  0
  7 12  4  0
  8 12  4  0
  9 20  1  0
  9 28  2  0
 10 13  4  0
 11 14  1  0
 11 16  3  0
 11 17  1  0
 11 18  2  0
 11 19  3  0
 13 15  4  0
 13 27  4  0
 14 16  1  0
 14 24  4  0
 16 25  1  0
 18 20  1  0
 18 21  4  0
 18 22  3  0
 18 27  4  0
 19 22  1  0
 22 26  1  0
 23 27  4  0
M  END
$$$$

 Created by Python create_sdf_string function

 28 30  0  0  0  0  0  0  0  0999 V2000
    0.7483  -13.8607   15.8386 C   0  0  0  0  0  0  0  0  0  0  0  0
    0.3359   -4.6011   27.1590 N   0  0  0  0  0  0  0  0  0  0  0  0
    5.8374   -8.6766   18.6991 C   0  0  0  0  0  0  0  0  0  0  0  0
    4.5301  -11.2769   16.3748 C   0  0  0  0  0  0  0  0  0  0  0  0
    7.4313   -8.9793   16.9406 C   0  0  0  0  0  0  0  0  0  0  0  0
    3.1350   -6.3459   28.7211 C   0  0  0  0  0  0  0  0  0  0  0  0
    6.6275   -9.9512   16.3550 C   0  0  0  0  0  0  0  0  0  0  0  0
    4.9920   -9.6879   18.1335 C   0  0  0  0  0  0  0  0  0  0  0  0
    1.5097   -5.2591   27.3090 C   0  0  0  0  0  0  0  0  0  0  0  0
    3.3691  -11.7354   17.0247 C   0  0  0  0  0  0  0  0  0  0  0  0
   -0.9002   -2.5806   26.9308 C   0  0  0  0  0  0  0  0  0  0  0  0
    5.3755  -10.3109   16.9479 C   0  0  0  0  0  0  0  0  0  0  0  0
    2.4715  -12.5482   16.4629 N   0  0  0  0  0  0  0  0  0  0  0  0
   -2.0962   -3.2753   26.7293 N   0  0  0  0  0  0  0  0  0  0  0  0
    1.2960  -13.0974   16.8845 C   0  0  0  0  0  0  0  0  0  0  0  0
   -2.1146   -4.6172   27.1022 C   0  0  0  0  0  0  0  0  0  0  0  0
    0.2890   -3.3277   26.5929 C   0  0  0  0  0  0  0  0  0  0  0  0
    3.8104  -12.6460   14.4383 C   0  0  0  0  0  0  0  0  0  0  0  0
    5.0824   -5.1735   28.9957 O   0  0  0  0  0  0  0  0  0  0  0  0
    1.8053   -5.7752   28.6064 C   0  0  0  0  0  0  0  0  0  0  0  0
    4.7376  -11.8094   15.0989 C   0  0  0  0  0  0  0  0  0  0  0  0
    4.0409   -5.5530   29.5358 C   0  0  0  0  0  0  0  0  0  0  0  0
    1.6057  -13.7464   14.7769 N   0  0  0  0  0  0  0  0  0  0  0  0
    7.0262   -8.3506   18.0809 C   0  0  0  0  0  0  0  0  0  0  0  0
   -0.8700   -5.2592   27.4439 C   0  0  0  0  0  0  0  0  0  0  0  0
    3.7437   -5.4022   30.6819 O   0  0  0  0  0  0  0  0  0  0  0  0
    2.6677  -12.9905   15.1588 C   0  0  0  0  0  0  0  0  0  0  0  0
    2.2669   -5.4196   26.4339 O   0  0  0  0  0  0  0  0  0  0  0  0
  1 15  4  0
  1 23  4  0
  2  9  1  0
  2 17  1  0
  2 25  1  0
  3  8  4  0
  3 24  4  0
  4 10  4  0
  4 12  1  0
  4 21  4  0
  5  7  4  0
  5 24  4  0
  6 20  1  0
  6 22  1  0
  7 12  4  0
  8 12  4  0
  9 20  1  0
  9 28  2  0
 10 13  4  0
 11 14  1  0
 11 17  1  0
 13 15  4  0
 13 27  4  0
 14 16  1  0
 16 25  1  0
 18 21  4  0
 18 27  4  0
 19 22  1  0
 22 26  1  0
 23 27  4  0
M  END
$$$$

 Created by Python create_sdf_string function

 28 46  0  0  0  0  0  0  0  0999 V2000
    0.7012  -13.9048   15.7188 C   0  0  0  0  0  0  0  0  0  0  0  0
    0.3461   -4.6137   27.2028 N   0  0  0  0  0  0  0  0  0  0  0  0
    5.8580   -8.7105   18.6618 C   0  0  0  0  0  0  0  0  0  0  0  0
    4.5534  -11.2547   16.3210 C   0  0  0  0  0  0  0  0  0  0  0  0
    7.3862   -8.7727   16.8616 C   0  0  0  0  0  0  0  0  0  0  0  0
    3.0918   -6.4239   28.8086 C   0  0  0  0  0  0  0  0  0  0  0  0
    6.5149   -9.8973   16.4123 C   0  0  0  0  0  0  0  0  0  0  0  0
    4.9739   -9.7512   18.1953 C   0  0  0  0  0  0  0  0  0  0  0  0
    1.6049   -5.3279   27.2206 C   0  0  0  0  0  0  0  0  0  0  0  0
    3.1663  -11.6976   17.0179 C   0  0  0  0  0  0  0  0  0  0  0  0
   -0.9970   -2.9234   26.8576 C   0  0  0  0  0  0  0  0  0  0  0  0
    5.3088  -10.1837   16.9671 C   0  0  0  0  0  0  0  0  0  0  0  0
    2.4370  -12.4643   16.3005 N   0  0  0  0  0  0  0  0  0  0  0  0
   -2.1265   -3.2594   26.7243 N   0  0  0  0  0  0  0  0  0  0  0  0
    1.1525  -13.1896   16.8918 F   0  0  0  0  0  0  0  0  0  0  0  0
   -2.1166   -4.6918   27.2183 C   0  0  0  0  0  0  0  0  0  0  0  0
    0.2127   -3.3799   26.5204 C   0  0  0  0  0  0  0  0  0  0  0  0
    3.8674  -12.6921   14.4244 C   0  0  0  0  0  0  0  0  0  0  0  0
    5.0870   -5.1732   28.8061 O   0  0  0  0  0  0  0  0  0  0  0  0
    1.6326   -5.6237   28.3876 C   0  0  0  0  0  0  0  0  0  0  0  0
    4.8120  -11.7728   15.2949 C   0  0  0  0  0  0  0  0  0  0  0  0
    4.0981   -5.5475   29.6050 C   0  0  0  0  0  0  0  0  0  0  0  0
    1.7356  -13.7835   14.8377 S   0  0  0  0  0  0  0  0  0  0  0  0
    7.0108   -8.2224   18.1103 C   0  0  0  0  0  0  0  0  0  0  0  0
   -0.9449   -5.2531   27.4042 C   0  0  0  0  0  0  0  0  0  0  0  0
    3.7877   -5.4475   30.7434 O   0  0  0  0  0  0  0  0  0  0  0  0
    2.6725  -13.0858   15.0730 Br  0  0  0  0  0  0  0  0  0  0  0  0
    2.1396   -5.4624   26.6695 O   0  0  0  0  0  0  0  0  0  0  0  0
  1 15  4  0
  1 23  4  0
  1 24  1  0
  2  9  1  0
  2 17  1  0
  2 23  1  0
  2 25  1  0
  3  8  4  0
  4 10  4  0
  4 12  1  0
  4 16  3  0
  4 21  4  0
  5  7  4  0
  5 12  2  0
  5 22  1  0
  5 24  4  0
  5 25  1  0
  6 20  1  0
  6 22  1  0
  7  8  1  0
  7 12  4  0
  8 12  4  0
  8 17  4  0
  9 15  4  0
  9 20  1  0
  9 28  2  0
 10 13  4  0
 10 16  2  0
 10 19  3  0
 11 14  1  0
 11 17  1  0
 11 28  3  0
 13 15  4  0
 13 17  3  0
 13 22  1  0
 13 23  2  0
 13 27  4  0
 14 16  1  0
 14 17  3  0
 16 25  1  0
 18 21  4  0
 18 27  4  0
 19 22  1  0
 22 26  1  0
 23 27  4  0
 24 25  2  0
M  END
$$$$

 Created by Python create_sdf_string function

 28 30  0  0  0  0  0  0  0  0999 V2000
    0.7203  -13.8932   15.8068 C   0  0  0  0  0  0  0  0  0  0  0  0
    0.2621   -4.6423   27.1635 N   0  0  0  0  0  0  0  0  0  0  0  0
    5.8415   -8.6735   18.7266 C   0  0  0  0  0  0  0  0  0  0  0  0
    4.4695  -11.2196   16.3842 C   0  0  0  0  0  0  0  0  0  0  0  0
    7.3252   -8.8593   16.8745 C   0  0  0  0  0  0  0  0  0  0  0  0
    3.0727   -6.4003   28.8090 C   0  0  0  0  0  0  0  0  0  0  0  0
    6.5414   -9.8280   16.3355 C   0  0  0  0  0  0  0  0  0  0  0  0
    5.0155   -9.6785   18.1768 C   0  0  0  0  0  0  0  0  0  0  0  0
    1.4618   -5.2577   27.3019 C   0  0  0  0  0  0  0  0  0  0  0  0
    3.2676  -11.6483   16.9906 C   0  0  0  0  0  0  0  0  0  0  0  0
   -0.9829   -2.6319   26.8460 C   0  0  0  0  0  0  0  0  0  0  0  0
    5.3200  -10.2702   16.9667 C   0  0  0  0  0  0  0  0  0  0  0  0
    2.4355  -12.5176   16.4116 N   0  0  0  0  0  0  0  0  0  0  0  0
   -2.2000   -3.3432   26.7240 N   0  0  0  0  0  0  0  0  0  0  0  0
    1.2431  -13.0647   16.7915 C   0  0  0  0  0  0  0  0  0  0  0  0
   -2.1598   -4.6735   27.1793 C   0  0  0  0  0  0  0  0  0  0  0  0
    0.2098   -3.3825   26.5168 C   0  0  0  0  0  0  0  0  0  0  0  0
    3.8975  -12.6871   14.4783 C   0  0  0  0  0  0  0  0  0  0  0  0
    5.0355   -5.1820   28.8813 O   0  0  0  0  0  0  0  0  0  0  0  0
    1.7969   -5.7162   28.6241 C   0  0  0  0  0  0  0  0  0  0  0  0
    4.7560  -11.7943   15.1361 C   0  0  0  0  0  0  0  0  0  0  0  0
    4.0541   -5.5656   29.5522 C   0  0  0  0  0  0  0  0  0  0  0  0
    1.6686  -13.8551   14.7353 N   0  0  0  0  0  0  0  0  0  0  0  0
    6.9761   -8.2626   18.0622 C   0  0  0  0  0  0  0  0  0  0  0  0
   -0.9089   -5.3083   27.4555 C   0  0  0  0  0  0  0  0  0  0  0  0
    3.8221   -5.4222   30.7446 O   0  0  0  0  0  0  0  0  0  0  0  0
    2.7317  -13.0245   15.1293 C   0  0  0  0  0  0  0  0  0  0  0  0
    2.2137   -5.4328   26.4209 O   0  0  0  0  0  0  0  0  0  0  0  0
  1 15  4  0
  1 23  4  0
  2  9  1  0
  2 17  1  0
  2 25  1  0
  3  8  4  0
  3 24  4  0
  4 10  4  0
  4 12  1  0
  4 21  4  0
  5  7  4  0
  5 24  4  0
  6 20  1  0
  6 22  1  0
  7 12  4  0
  8 12  4  0
  9 20  1  0
  9 28  2  0
 10 13  4  0
 11 14  1  0
 11 17  1  0
 13 15  4  0
 13 27  4  0
 14 16  1  0
 16 25  1  0
 18 21  4  0
 18 27  4  0
 19 22  2  0
 22 26  2  0
 23 27  4  0
M  END
$$$$

 Created by Python create_sdf_string function

 28 38  0  0  0  0  0  0  0  0999 V2000
    0.6320  -14.0392   15.8654 C   0  0  0  0  0  0  0  0  0  0  0  0
    0.1608   -4.6932   27.1583 N   0  0  0  0  0  0  0  0  0  0  0  0
    5.8748   -8.5793   18.7161 C   0  0  0  0  0  0  0  0  0  0  0  0
    4.5749  -11.2721   16.4557 C   0  0  0  0  0  0  0  0  0  0  0  0
    7.4017   -8.8301   17.0379 C   0  0  0  0  0  0  0  0  0  0  0  0
    2.9219   -6.3510   28.9174 C   0  0  0  0  0  0  0  0  0  0  0  0
    6.5111   -9.8511   16.2940 C   0  0  0  0  0  0  0  0  0  0  0  0
    5.0220   -9.6533   18.1521 C   0  0  0  0  0  0  0  0  0  0  0  0
    1.4041   -5.3198   27.2524 C   0  0  0  0  0  0  0  0  0  0  0  0
    3.3153  -11.6580   17.0007 C   0  0  0  0  0  0  0  0  0  0  0  0
    5.3269  -10.3545   17.0168 C   0  0  0  0  0  0  0  0  0  0  0  0
    2.5331  -12.5265   16.4125 N   0  0  0  0  0  0  0  0  0  0  0  0
   -2.2307   -3.3471   26.7201 N   0  0  0  0  0  0  0  0  0  0  0  0
    1.3766  -13.0206   16.9142 C   0  0  0  0  0  0  0  0  0  0  0  0
   -2.1967   -4.6113   27.1296 C   0  0  0  0  0  0  0  0  0  0  0  0
    0.1764   -3.4263   26.5777 C   0  0  0  0  0  0  0  0  0  0  0  0
    3.9124  -12.7628   14.4447 C   0  0  0  0  0  0  0  0  0  0  0  0
    5.1116   -5.2392   28.8025 O   0  0  0  0  0  0  0  0  0  0  0  0
    1.7430   -5.8501   28.7699 C   0  0  0  0  0  0  0  0  0  0  0  0
    4.6899  -11.8458   15.2801 C   0  0  0  0  0  0  0  0  0  0  0  0
    4.1197   -5.6425   29.6461 C   0  0  0  0  0  0  0  0  0  0  0  0
    1.6681  -13.9415   14.5956 N   0  0  0  0  0  0  0  0  0  0  0  0
    6.9386   -8.1287   18.0433 C   0  0  0  0  0  0  0  0  0  0  0  0
   -0.7015   -5.2847   27.4965 C   0  0  0  0  0  0  0  0  0  0  0  0
    3.9062   -5.4920   30.8222 O   0  0  0  0  0  0  0  0  0  0  0  0
    2.7489  -13.1320   15.2730 C   0  0  0  0  0  0  0  0  0  0  0  0
    2.2325   -5.6029   26.3196 O   0  0  0  0  0  0  0  0  0  0  0  0
   -0.8909   -2.6393   26.8416 He  0  0  0  0  0  0  0  0  0  0  0  0
  1  6  4  0
  1 14  4  0
  1 22  4  0
  2  3  3  0
  2  9  1  0
  2 16  1  0
  2 24  1  0
  3  8  4  0
  3 15  1  0
  3 23  4  0
  4 10  4  0
  4 11  1  0
  4 20  4  0
  5  7  4  0
  5 21  4  0
  5 23  4  0
  6 19  1  0
  6 21  1  0
  6 27  2  0
  7 11  4  0
  8 14  4  0
  9 19  1  0
  9 27  2  0
 10 12  4  0
 12 14  4  0
 12 26  4  0
 13 15  1  0
 13 23  1  0
 14 17  1  0
 14 20  3  0
 14 23  3  0
 16 20  1  0
 17 20  4  0
 17 26  4  0
 18 21  2  0
 21 25  2  0
 21 27  1  0
 22 26  4  0
M  END
$$$$

 Created by Python create_sdf_string function

 28 30  0  0  0  0  0  0  0  0999 V2000
    0.7362  -13.9571   15.8466 C   0  0  0  0  0  0  0  0  0  0  0  0
    0.2742   -4.6813   27.1901 N   0  0  0  0  0  0  0  0  0  0  0  0
    5.8071   -8.6001   18.7102 C   0  0  0  0  0  0  0  0  0  0  0  0
    4.4985  -11.2346   16.4173 C   0  0  0  0  0  0  0  0  0  0  0  0
    7.3340   -8.8438   16.9027 C   0  0  0  0  0  0  0  0  0  0  0  0
    3.0213   -6.4178   28.8871 C   0  0  0  0  0  0  0  0  0  0  0  0
    6.5664   -9.8635   16.3697 C   0  0  0  0  0  0  0  0  0  0  0  0
    5.0126   -9.6428   18.1861 C   0  0  0  0  0  0  0  0  0  0  0  0
    1.4336   -5.3397   27.3208 C   0  0  0  0  0  0  0  0  0  0  0  0
    3.3120  -11.7016   17.0284 C   0  0  0  0  0  0  0  0  0  0  0  0
   -0.9672   -2.6281   26.8480 C   0  0  0  0  0  0  0  0  0  0  0  0
    5.3442  -10.2515   16.9952 C   0  0  0  0  0  0  0  0  0  0  0  0
    2.4684  -12.5554   16.4720 N   0  0  0  0  0  0  0  0  0  0  0  0
   -2.2081   -3.3161   26.7128 N   0  0  0  0  0  0  0  0  0  0  0  0
    1.2506  -13.1001   16.8843 C   0  0  0  0  0  0  0  0  0  0  0  0
   -2.1653   -4.6549   27.1377 C   0  0  0  0  0  0  0  0  0  0  0  0
    0.2241   -3.4301   26.5471 C   0  0  0  0  0  0  0  0  0  0  0  0
    3.9237  -12.7381   14.5239 C   0  0  0  0  0  0  0  0  0  0  0  0
    5.0522   -5.2718   28.8669 O   0  0  0  0  0  0  0  0  0  0  0  0
    1.7242   -5.7996   28.7064 C   0  0  0  0  0  0  0  0  0  0  0  0
    4.7652  -11.8332   15.1865 C   0  0  0  0  0  0  0  0  0  0  0  0
    4.0590   -5.6556   29.5638 C   0  0  0  0  0  0  0  0  0  0  0  0
    1.7036  -13.9186   14.7831 N   0  0  0  0  0  0  0  0  0  0  0  0
    6.9533   -8.2014   18.0620 C   0  0  0  0  0  0  0  0  0  0  0  0
   -0.9294   -5.2906   27.5406 C   0  0  0  0  0  0  0  0  0  0  0  0
    3.9310   -5.4963   30.7755 O   0  0  0  0  0  0  0  0  0  0  0  0
    2.7517  -13.0682   15.2031 C   0  0  0  0  0  0  0  0  0  0  0  0
    2.1769   -5.5701   26.4248 O   0  0  0  0  0  0  0  0  0  0  0  0
  1 15  4  0
  1 23  4  0
  2  9  1  0
  2 17  1  0
  2 25  1  0
  3  8  4  0
  3 24  4  0
  4 10  4  0
  4 12  1  0
  4 21  4  0
  5  7  4  0
  5 24  4  0
  6 20  1  0
  6 22  1  0
  7 12  4  0
  8 12  4  0
  9 20  1  0
  9 28  2  0
 10 13  4  0
 11 14  1  0
 11 17  1  0
 13 15  4  0
 13 27  4  0
 14 16  1  0
 16 25  1  0
 18 21  4  0
 18 27  4  0
 19 22  2  0
 22 26  2  0
 23 27  4  0
M  END
$$$$

 Created by Python create_sdf_string function

 28 34  0  0  0  0  0  0  0  0999 V2000
    0.3679   -4.5509   27.3597 N   0  0  0  0  0  0  0  0  0  0  0  0
    5.7920   -8.5780   18.6648 C   0  0  0  0  0  0  0  0  0  0  0  0
    4.6832  -11.2871   16.5489 C   0  0  0  0  0  0  0  0  0  0  0  0
    7.4416   -8.6460   16.9481 C   0  0  0  0  0  0  0  0  0  0  0  0
    3.1781   -6.3878   28.9361 C   0  0  0  0  0  0  0  0  0  0  0  0
    6.5327   -9.8398   16.3504 C   0  0  0  0  0  0  0  0  0  0  0  0
    4.9518   -9.6088   18.2009 C   0  0  0  0  0  0  0  0  0  0  0  0
    1.5036   -5.4147   27.3227 C   0  0  0  0  0  0  0  0  0  0  0  0
    3.3227  -11.7728   17.0654 C   0  0  0  0  0  0  0  0  0  0  0  0
   -0.9623   -2.4699   26.8971 C   0  0  0  0  0  0  0  0  0  0  0  0
    5.3141  -10.2503   16.9567 C   0  0  0  0  0  0  0  0  0  0  0  0
    2.4746  -12.6064   16.6129 N   0  0  0  0  0  0  0  0  0  0  0  0
   -2.1816   -3.3795   26.6734 N   0  0  0  0  0  0  0  0  0  0  0  0
    1.2689  -13.0833   16.9295 C   0  0  0  0  0  0  0  0  0  0  0  0
   -2.4006   -4.5440   27.1174 C   0  0  0  0  0  0  0  0  0  0  0  0
    0.2464   -3.4408   26.5186 C   0  0  0  0  0  0  0  0  0  0  0  0
    3.8435  -12.7956   14.6497 C   0  0  0  0  0  0  0  0  0  0  0  0
    5.0124   -5.2589   28.8374 O   0  0  0  0  0  0  0  0  0  0  0  0
    1.6844   -5.7012   28.7142 C   0  0  0  0  0  0  0  0  0  0  0  0
    4.7386  -11.8324   15.2035 C   0  0  0  0  0  0  0  0  0  0  0  0
    4.1283   -5.5740   29.5742 C   0  0  0  0  0  0  0  0  0  0  0  0
    1.7089  -13.9051   14.6952 N   0  0  0  0  0  0  0  0  0  0  0  0
    7.1121   -8.1358   18.0992 C   0  0  0  0  0  0  0  0  0  0  0  0
   -0.8505   -5.2396   27.5897 C   0  0  0  0  0  0  0  0  0  0  0  0
    3.8109   -5.4772   30.7346 O   0  0  0  0  0  0  0  0  0  0  0  0
    2.6180  -13.0555   15.2261 C   0  0  0  0  0  0  0  0  0  0  0  0
    2.0570   -5.6803   26.3527 O   0  0  0  0  0  0  0  0  0  0  0  0
    0.7253  -13.9814   15.8440 He  0  0  0  0  0  0  0  0  0  0  0  0
  1 16  1  0
  1 24  1  0
  2  7  4  0
  2 23  4  0
  3  9  4  0
  3 11  1  0
  3 20  4  0
  4  6  4  0
  4 21  2  0
  4 23  4  0
  5 21  1  0
  6 11  4  0
  7 11  4  0
  7 26  1  0
  8 19  1  0
  8 20  4  0
  8 27  2  0
  9 12  4  0
  9 18  1  0
 10 13  1  0
 10 16  1  0
 10 27  4  0
 12 14  4  0
 12 26  4  0
 13 15  1  0
 14 17  3  0
 15 24  1  0
 16 27  4  0
 17 20  4  0
 17 26  4  0
 18 21  2  0
 20 27  1  0
 21 25  2  0
 22 26  4  0
M  END
$$$$

 Created by Python create_sdf_string function

 28 30  0  0  0  0  0  0  0  0999 V2000
    0.7413  -13.9293   15.8682 C   0  0  0  0  0  0  0  0  0  0  0  0
    0.2595   -4.5747   27.3103 N   0  0  0  0  0  0  0  0  0  0  0  0
    5.8207   -8.5517   18.7215 C   0  0  0  0  0  0  0  0  0  0  0  0
    4.5165  -11.2485   16.4532 C   0  0  0  0  0  0  0  0  0  0  0  0
    7.3697   -8.7823   16.8880 C   0  0  0  0  0  0  0  0  0  0  0  0
    3.0636   -6.3987   28.8672 C   0  0  0  0  0  0  0  0  0  0  0  0
    6.5656   -9.7896   16.3749 C   0  0  0  0  0  0  0  0  0  0  0  0
    5.0214   -9.5937   18.1814 C   0  0  0  0  0  0  0  0  0  0  0  0
    1.4141   -5.3329   27.3666 C   0  0  0  0  0  0  0  0  0  0  0  0
    3.3467  -11.7471   17.1106 C   0  0  0  0  0  0  0  0  0  0  0  0
   -0.9590   -2.5588   26.8797 C   0  0  0  0  0  0  0  0  0  0  0  0
    5.3657  -10.2229   17.0076 C   0  0  0  0  0  0  0  0  0  0  0  0
    2.4668  -12.5792   16.5434 N   0  0  0  0  0  0  0  0  0  0  0  0
   -2.1845   -3.2996   26.6544 N   0  0  0  0  0  0  0  0  0  0  0  0
    1.2475  -13.1083   16.9382 C   0  0  0  0  0  0  0  0  0  0  0  0
   -2.2208   -4.6154   27.1582 C   0  0  0  0  0  0  0  0  0  0  0  0
    0.2137   -3.4078   26.5089 C   0  0  0  0  0  0  0  0  0  0  0  0
    3.8820  -12.7459   14.5746 C   0  0  0  0  0  0  0  0  0  0  0  0
    5.0435   -5.2367   28.9071 O   0  0  0  0  0  0  0  0  0  0  0  0
    1.7862   -5.7610   28.7304 C   0  0  0  0  0  0  0  0  0  0  0  0
    4.7681  -11.8405   15.2182 C   0  0  0  0  0  0  0  0  0  0  0  0
    4.0744   -5.6112   29.5605 C   0  0  0  0  0  0  0  0  0  0  0  0
    1.6846  -13.8768   14.8145 N   0  0  0  0  0  0  0  0  0  0  0  0
    6.9890   -8.1627   18.0853 C   0  0  0  0  0  0  0  0  0  0  0  0
   -0.9742   -5.2235   27.6008 C   0  0  0  0  0  0  0  0  0  0  0  0
    3.8955   -5.4362   30.7394 O   0  0  0  0  0  0  0  0  0  0  0  0
    2.7244  -13.0775   15.2555 C   0  0  0  0  0  0  0  0  0  0  0  0
    2.0204   -5.6483   26.4152 O   0  0  0  0  0  0  0  0  0  0  0  0
  1 15  4  0
  1 23  4  0
  2  9  1  0
  2 17  1  0
  2 25  1  0
  3  8  4  0
  3 24  4  0
  4 10  4  0
  4 12  1  0
  4 21  4  0
  5  7  4  0
  5 24  4  0
  6 20  1  0
  6 22  1  0
  7 12  4  0
  8 12  4  0
  9 20  1  0
  9 28  2  0
 10 13  4  0
 11 14  1  0
 11 17  1  0
 13 15  4  0
 13 27  4  0
 14 16  1  0
 16 25  1  0
 18 21  4  0
 18 27  4  0
 19 22  1  0
 22 26  1  0
 23 27  4  0
M  END
$$$$

 Created by Python create_sdf_string function

 28 35  0  0  0  0  0  0  0  0999 V2000
    0.8073  -13.9475   15.8230 C   0  0  0  0  0  0  0  0  0  0  0  0
    0.1941   -4.5153   27.5327 N   0  0  0  0  0  0  0  0  0  0  0  0
    5.7440   -8.5042   18.6398 C   0  0  0  0  0  0  0  0  0  0  0  0
    4.3959  -11.2202   16.4394 C   0  0  0  0  0  0  0  0  0  0  0  0
    7.3587   -8.8528   16.9378 C   0  0  0  0  0  0  0  0  0  0  0  0
    3.0419   -6.5097   28.9024 C   0  0  0  0  0  0  0  0  0  0  0  0
    6.5716   -9.9936   16.3335 C   0  0  0  0  0  0  0  0  0  0  0  0
    5.0576   -9.7264   18.1568 C   0  0  0  0  0  0  0  0  0  0  0  0
    1.4696   -5.3344   27.2705 C   0  0  0  0  0  0  0  0  0  0  0  0
    3.2856  -11.6706   17.1316 C   0  0  0  0  0  0  0  0  0  0  0  0
   -0.8764   -2.5275   26.6868 C   0  0  0  0  0  0  0  0  0  0  0  0
    5.2813  -10.1782   17.0508 C   0  0  0  0  0  0  0  0  0  0  0  0
    2.4071  -12.6659   16.5311 N   0  0  0  0  0  0  0  0  0  0  0  0
   -2.2893   -3.3287   26.6796 N   0  0  0  0  0  0  0  0  0  0  0  0
    1.2639  -13.0357   16.8474 C   0  0  0  0  0  0  0  0  0  0  0  0
   -2.1503   -4.6059   27.0916 C   0  0  0  0  0  0  0  0  0  0  0  0
    3.9307  -12.6572   14.5573 C   0  0  0  0  0  0  0  0  0  0  0  0
    4.9792   -5.2073   28.9843 O   0  0  0  0  0  0  0  0  0  0  0  0
    1.6283   -5.8565   28.6605 C   0  0  0  0  0  0  0  0  0  0  0  0
    4.8544  -11.8960   15.2875 C   0  0  0  0  0  0  0  0  0  0  0  0
    3.9213   -5.6192   29.3850 C   0  0  0  0  0  0  0  0  0  0  0  0
    1.6798  -13.8642   14.9287 N   0  0  0  0  0  0  0  0  0  0  0  0
    6.9945   -8.1493   18.1553 C   0  0  0  0  0  0  0  0  0  0  0  0
   -1.0162   -5.2240   27.6842 C   0  0  0  0  0  0  0  0  0  0  0  0
    3.9238   -5.4511   30.6234 O   0  0  0  0  0  0  0  0  0  0  0  0
    2.7083  -13.1049   15.2784 C   0  0  0  0  0  0  0  0  0  0  0  0
    2.0704   -5.5955   26.4544 O   0  0  0  0  0  0  0  0  0  0  0  0
    0.2820   -3.4409   26.4533 He  0  0  0  0  0  0  0  0  0  0  0  0
  1 15  4  0
  1 22  4  0
  2  9  1  0
  2 24  1  0
  3  8  4  0
  3 11  3  0
  3 12  2  0
  3 23  4  0
  4  9  3  0
  4 10  4  0
  4 12  1  0
  4 20  4  0
  5  7  4  0
  5 23  4  0
  5 27  1  0
  6 19  1  0
  6 21  1  0
  7 12  2  0
  7 17  2  0
  9 19  1  0
  9 27  2  0
 10 13  4  0
 11 14  3  0
 11 15  1  0
 11 18  3  0
 13 15  4  0
 13 26  4  0
 14 16  1  0
 14 19  4  0
 16 24  1  0
 17 20  4  0
 17 26  4  0
 18 21  1  0
 21 25  1  0
 22 26  4  0
M  END
$$$$

 Created by Python create_sdf_string function

 28 30  0  0  0  0  0  0  0  0999 V2000
    0.7797  -13.9197   15.8714 C   0  0  0  0  0  0  0  0  0  0  0  0
    0.2359   -4.5500   27.3857 N   0  0  0  0  0  0  0  0  0  0  0  0
    5.7621   -8.5691   18.6996 C   0  0  0  0  0  0  0  0  0  0  0  0
    4.4721  -11.2603   16.4537 C   0  0  0  0  0  0  0  0  0  0  0  0
    7.3498   -8.8794   16.9340 C   0  0  0  0  0  0  0  0  0  0  0  0
    2.9999   -6.4647   28.8457 C   0  0  0  0  0  0  0  0  0  0  0  0
    6.5643   -9.8734   16.4128 C   0  0  0  0  0  0  0  0  0  0  0  0
    4.9602   -9.6021   18.1760 C   0  0  0  0  0  0  0  0  0  0  0  0
    1.3784   -5.3203   27.4109 C   0  0  0  0  0  0  0  0  0  0  0  0
    3.2657  -11.6886   17.0882 C   0  0  0  0  0  0  0  0  0  0  0  0
   -0.9494   -2.5672   26.6982 C   0  0  0  0  0  0  0  0  0  0  0  0
    5.3186  -10.2649   17.0210 C   0  0  0  0  0  0  0  0  0  0  0  0
    2.4396  -12.5407   16.5251 N   0  0  0  0  0  0  0  0  0  0  0  0
   -2.2076   -3.2772   26.6841 N   0  0  0  0  0  0  0  0  0  0  0  0
    1.2318  -13.0757   16.9048 C   0  0  0  0  0  0  0  0  0  0  0  0
   -2.1980   -4.6356   27.0849 C   0  0  0  0  0  0  0  0  0  0  0  0
    0.2295   -3.4358   26.4852 C   0  0  0  0  0  0  0  0  0  0  0  0
    3.9029  -12.7483   14.5779 C   0  0  0  0  0  0  0  0  0  0  0  0
    5.0033   -5.2167   28.8893 O   0  0  0  0  0  0  0  0  0  0  0  0
    1.6742   -5.8936   28.7143 C   0  0  0  0  0  0  0  0  0  0  0  0
    4.7726  -11.8452   15.2029 C   0  0  0  0  0  0  0  0  0  0  0  0
    4.0157   -5.6004   29.4971 C   0  0  0  0  0  0  0  0  0  0  0  0
    1.7337  -13.8911   14.8784 N   0  0  0  0  0  0  0  0  0  0  0  0
    6.9518   -8.2036   18.0725 C   0  0  0  0  0  0  0  0  0  0  0  0
   -0.9950   -5.1844   27.6746 C   0  0  0  0  0  0  0  0  0  0  0  0
    3.8967   -5.4518   30.6874 O   0  0  0  0  0  0  0  0  0  0  0  0
    2.7449  -13.0646   15.2715 C   0  0  0  0  0  0  0  0  0  0  0  0
    2.0531   -5.5536   26.4689 O   0  0  0  0  0  0  0  0  0  0  0  0
  1 15  4  0
  1 23  4  0
  2  9  1  0
  2 17  1  0
  2 25  1  0
  3  8  4  0
  3 24  4  0
  4 10  4  0
  4 12  1  0
  4 21  4  0
  5  7  4  0
  5 24  4  0
  6 20  1  0
  6 22  1  0
  7 12  4  0
  8 12  4  0
  9 20  1  0
  9 28  2  0
 10 13  4  0
 11 14  1  0
 11 17  1  0
 13 15  4  0
 13 27  4  0
 14 16  1  0
 16 25  1  0
 18 21  4  0
 18 27  4  0
 19 22  1  0
 22 26  1  0
 23 27  4  0
M  END
$$$$

 Created by Python create_sdf_string function

 28 40  0  0  0  0  0  0  0  0999 V2000
    0.7995  -13.9817   15.8764 C   0  0  0  0  0  0  0  0  0  0  0  0
    0.2864   -4.4884   27.4218 N   0  0  0  0  0  0  0  0  0  0  0  0
    5.8169   -8.4577   18.6925 C   0  0  0  0  0  0  0  0  0  0  0  0
    4.5056  -11.2638   16.4277 C   0  0  0  0  0  0  0  0  0  0  0  0
    7.3731   -8.6914   16.9090 C   0  0  0  0  0  0  0  0  0  0  0  0
    2.9693   -6.4202   28.8314 O   0  0  0  0  0  0  0  0  0  0  0  0
    6.6114   -9.9989   16.4279 C   0  0  0  0  0  0  0  0  0  0  0  0
    4.9000   -9.6472   18.1356 C   0  0  0  0  0  0  0  0  0  0  0  0
    1.4336   -5.3124   27.4950 C   0  0  0  0  0  0  0  0  0  0  0  0
    3.3152  -11.6397   17.1080 C   0  0  0  0  0  0  0  0  0  0  0  0
   -1.0128   -2.6757   26.7086 C   0  0  0  0  0  0  0  0  0  0  0  0
    5.2939  -10.2590   16.9885 C   0  0  0  0  0  0  0  0  0  0  0  0
    2.5107  -12.5074   16.5338 N   0  0  0  0  0  0  0  0  0  0  0  0
   -2.2580   -3.2770   26.7670 N   0  0  0  0  0  0  0  0  0  0  0  0
    1.2350  -13.0398   16.9620 C   0  0  0  0  0  0  0  0  0  0  0  0
   -2.1533   -4.5761   27.1059 C   0  0  0  0  0  0  0  0  0  0  0  0
    0.2248   -3.4409   26.5140 C   0  0  0  0  0  0  0  0  0  0  0  0
    3.9200  -12.6344   14.5747 C   0  0  0  0  0  0  0  0  0  0  0  0
    5.0183   -5.1777   28.9054 O   0  0  0  0  0  0  0  0  0  0  0  0
    1.6110   -6.0273   28.5993 C   0  0  0  0  0  0  0  0  0  0  0  0
    4.7109  -11.9886   15.2693 C   0  0  0  0  0  0  0  0  0  0  0  0
    4.0115   -5.6411   29.5280 C   0  0  0  0  0  0  0  0  0  0  0  0
    1.8107  -13.8084   14.8367 N   0  0  0  0  0  0  0  0  0  0  0  0
    6.9733   -8.2180   18.0511 N   0  0  0  0  0  0  0  0  0  0  0  0
   -0.9517   -5.1979   27.6831 C   0  0  0  0  0  0  0  0  0  0  0  0
    3.8601   -5.3702   30.5887 O   0  0  0  0  0  0  0  0  0  0  0  0
    2.6873  -13.0656   15.2146 C   0  0  0  0  0  0  0  0  0  0  0  0
    1.9395   -5.5945   26.5397 O   0  0  0  0  0  0  0  0  0  0  0  0
  1 15  4  0
  1 23  4  0
  2  9  1  0
  2 17  1  0
  2 24  4  0
  2 25  1  0
  3  7  1  0
  3  8  4  0
  3 24  4  0
  4 11  2  0
  4 12  1  0
  4 20  3  0
  4 21  4  0
  4 26  1  0
  5  7  4  0
  5 11  4  0
  5 24  4  0
  6 20  1  0
  6 22  1  0
  7 12  4  0
  8 12  4  0
  9 11  1  0
  9 16  1  0
  9 20  1  0
  9 28  2  0
 10 13  4  0
 10 24  2  0
 11 12  4  0
 11 14  1  0
 11 17  1  0
 11 24  1  0
 13 15  4  0
 13 27  4  0
 14 16  1  0
 16 25  1  0
 18 21  4  0
 18 27  4  0
 19 22  1  0
 22 26  1  0
 23 27  4  0
M  END
$$$$

 Created by Python create_sdf_string function

 28 30  0  0  0  0  0  0  0  0999 V2000
    0.7983  -13.9386   15.8865 C   0  0  0  0  0  0  0  0  0  0  0  0
    0.2358   -4.5464   27.3883 N   0  0  0  0  0  0  0  0  0  0  0  0
    5.7829   -8.5381   18.6627 C   0  0  0  0  0  0  0  0  0  0  0  0
    4.4992  -11.2593   16.4400 C   0  0  0  0  0  0  0  0  0  0  0  0
    7.3450   -8.8551   16.9032 C   0  0  0  0  0  0  0  0  0  0  0  0
    3.0030   -6.3931   28.8343 C   0  0  0  0  0  0  0  0  0  0  0  0
    6.5884   -9.9036   16.3976 C   0  0  0  0  0  0  0  0  0  0  0  0
    4.9594   -9.5702   18.1650 C   0  0  0  0  0  0  0  0  0  0  0  0
    1.3453   -5.3184   27.4445 C   0  0  0  0  0  0  0  0  0  0  0  0
    3.2931  -11.6726   17.0789 C   0  0  0  0  0  0  0  0  0  0  0  0
   -0.9751   -2.6015   26.7197 C   0  0  0  0  0  0  0  0  0  0  0  0
    5.3516  -10.2534   17.0092 C   0  0  0  0  0  0  0  0  0  0  0  0
    2.4586  -12.5160   16.5240 N   0  0  0  0  0  0  0  0  0  0  0  0
   -2.2056   -3.2796   26.7776 N   0  0  0  0  0  0  0  0  0  0  0  0
    1.2417  -13.0669   16.9413 C   0  0  0  0  0  0  0  0  0  0  0  0
   -2.1636   -4.6356   27.1141 C   0  0  0  0  0  0  0  0  0  0  0  0
    0.2057   -3.4223   26.5106 C   0  0  0  0  0  0  0  0  0  0  0  0
    3.8979  -12.7249   14.5585 C   0  0  0  0  0  0  0  0  0  0  0  0
    4.9898   -5.2179   28.8767 O   0  0  0  0  0  0  0  0  0  0  0  0
    1.6620   -5.9762   28.7120 C   0  0  0  0  0  0  0  0  0  0  0  0
    4.7824  -11.8383   15.2221 C   0  0  0  0  0  0  0  0  0  0  0  0
    3.9814   -5.6143   29.4944 C   0  0  0  0  0  0  0  0  0  0  0  0
    1.7413  -13.8691   14.8451 N   0  0  0  0  0  0  0  0  0  0  0  0
    6.9440   -8.1884   18.0228 N   0  0  0  0  0  0  0  0  0  0  0  0
   -0.9891   -5.1717   27.6961 C   0  0  0  0  0  0  0  0  0  0  0  0
    3.8223   -5.3871   30.6628 O   0  0  0  0  0  0  0  0  0  0  0  0
    2.7468  -13.0339   15.2585 C   0  0  0  0  0  0  0  0  0  0  0  0
    1.9802   -5.5392   26.5168 O   0  0  0  0  0  0  0  0  0  0  0  0
  1 15  4  0
  1 23  4  0
  2  9  1  0
  2 17  1  0
  2 25  1  0
  3  8  4  0
  3 24  4  0
  4 10  4  0
  4 12  1  0
  4 21  4  0
  5  7  4  0
  5 24  4  0
  6 20  1  0
  6 22  1  0
  7 12  4  0
  8 12  4  0
  9 20  1  0
  9 28  2  0
 10 13  4  0
 11 14  1  0
 11 17  1  0
 13 15  4  0
 13 27  4  0
 14 16  1  0
 16 25  1  0
 18 21  4  0
 18 27  4  0
 19 22  1  0
 22 26  1  0
 23 27  4  0
M  END
$$$$

 Created by Python create_sdf_string function

 28 35  0  0  0  0  0  0  0  0999 V2000
    0.7568  -13.9343   15.9444 C   0  0  0  0  0  0  0  0  0  0  0  0
    0.3265   -4.5097   27.4459 N   0  0  0  0  0  0  0  0  0  0  0  0
    5.8277   -8.5817   18.6616 C   0  0  0  0  0  0  0  0  0  0  0  0
    4.4666  -11.2409   16.4984 C   0  0  0  0  0  0  0  0  0  0  0  0
    7.3676   -8.9382   16.8521 C   0  0  0  0  0  0  0  0  0  0  0  0
    2.8632   -6.4057   28.9294 C   0  0  0  0  0  0  0  0  0  0  0  0
    6.5833   -9.9452   16.3881 C   0  0  0  0  0  0  0  0  0  0  0  0
    4.9217   -9.5752   18.1385 C   0  0  0  0  0  0  0  0  0  0  0  0
    1.3601   -5.3905   27.4170 C   0  0  0  0  0  0  0  0  0  0  0  0
    3.2284  -11.7049   17.1082 C   0  0  0  0  0  0  0  0  0  0  0  0
   -0.9518   -2.6080   26.7730 C   0  0  0  0  0  0  0  0  0  0  0  0
    5.3837  -10.2587   16.9452 C   0  0  0  0  0  0  0  0  0  0  0  0
    2.4669  -12.4336   16.4560 N   0  0  0  0  0  0  0  0  0  0  0  0
   -2.1400   -3.2434   26.7509 N   0  0  0  0  0  0  0  0  0  0  0  0
    1.2823  -13.0759   16.9496 C   0  0  0  0  0  0  0  0  0  0  0  0
   -2.1522   -4.7155   27.1896 C   0  0  0  0  0  0  0  0  0  0  0  0
    0.2664   -3.5066   26.5116 C   0  0  0  0  0  0  0  0  0  0  0  0
    3.8950  -12.7181   14.5696 C   0  0  0  0  0  0  0  0  0  0  0  0
    4.9071   -5.2768   28.8856 O   0  0  0  0  0  0  0  0  0  0  0  0
    1.7099   -5.9071   28.6853 C   0  0  0  0  0  0  0  0  0  0  0  0
    4.7295  -11.9735   15.2074 C   0  0  0  0  0  0  0  0  0  0  0  0
    4.0927   -5.6501   29.5344 C   0  0  0  0  0  0  0  0  0  0  0  0
    1.6751  -13.8778   14.8262 N   0  0  0  0  0  0  0  0  0  0  0  0
    7.0073   -8.1787   17.9683 N   0  0  0  0  0  0  0  0  0  0  0  0
   -0.9867   -5.1062   27.6990 C   0  0  0  0  0  0  0  0  0  0  0  0
    3.8885   -5.3754   30.6774 O   0  0  0  0  0  0  0  0  0  0  0  0
    2.6746  -13.0622   15.2421 C   0  0  0  0  0  0  0  0  0  0  0  0
    2.1171   -5.5689   26.5477 O   0  0  0  0  0  0  0  0  0  0  0  0
  1 23  4  0
  2 17  1  0
  2 25  1  0
  2 27  2  0
  3  8  4  0
  3 10  2  0
  3 24  4  0
  4 10  4  0
  4 12  1  0
  4 21  4  0
  5  7  4  0
  5 20  2  0
  5 24  4  0
  6 20  1  0
  6 22  1  0
  7 12  4  0
  8 12  4  0
  8 17  1  0
  9 20  1  0
  9 28  2  0
 11 14  1  0
 11 17  1  0
 11 23  1  0
 13 15  4  0
 13 27  4  0
 13 28  1  0
 14 16  1  0
 16 25  1  0
 18 21  4  0
 18 27  4  0
 19 22  1  0
 22 26  1  0
 23 25  3  0
 23 27  4  0
 25 26  3  0
M  END
$$$$

 Created by Python create_sdf_string function

 28 30  0  0  0  0  0  0  0  0999 V2000
    0.7584  -13.9178   15.9315 C   0  0  0  0  0  0  0  0  0  0  0  0
    0.2416   -4.5821   27.3941 N   0  0  0  0  0  0  0  0  0  0  0  0
    5.8209   -8.5656   18.6353 C   0  0  0  0  0  0  0  0  0  0  0  0
    4.4875  -11.2551   16.4279 C   0  0  0  0  0  0  0  0  0  0  0  0
    7.3759   -8.9370   16.8494 C   0  0  0  0  0  0  0  0  0  0  0  0
    2.9589   -6.4802   28.9348 C   0  0  0  0  0  0  0  0  0  0  0  0
    6.5841   -9.9366   16.3566 C   0  0  0  0  0  0  0  0  0  0  0  0
    4.9832   -9.5718   18.1438 C   0  0  0  0  0  0  0  0  0  0  0  0
    1.3692   -5.3279   27.4709 C   0  0  0  0  0  0  0  0  0  0  0  0
    3.2624  -11.6705   17.0534 C   0  0  0  0  0  0  0  0  0  0  0  0
   -0.9133   -2.5908   26.7790 C   0  0  0  0  0  0  0  0  0  0  0  0
    5.3459  -10.2636   16.9809 C   0  0  0  0  0  0  0  0  0  0  0  0
    2.4414  -12.5199   16.5137 N   0  0  0  0  0  0  0  0  0  0  0  0
   -2.1588   -3.2920   26.7535 N   0  0  0  0  0  0  0  0  0  0  0  0
    1.2546  -13.0620   16.9382 C   0  0  0  0  0  0  0  0  0  0  0  0
   -2.1628   -4.6547   27.1475 C   0  0  0  0  0  0  0  0  0  0  0  0
    0.2255   -3.4757   26.4998 C   0  0  0  0  0  0  0  0  0  0  0  0
    3.8729  -12.7612   14.5518 C   0  0  0  0  0  0  0  0  0  0  0  0
    4.9466   -5.2769   28.8413 O   0  0  0  0  0  0  0  0  0  0  0  0
    1.6841   -5.8655   28.7655 C   0  0  0  0  0  0  0  0  0  0  0  0
    4.7663  -11.8801   15.1995 C   0  0  0  0  0  0  0  0  0  0  0  0
    4.0133   -5.6412   29.5438 C   0  0  0  0  0  0  0  0  0  0  0  0
    1.6616  -13.8833   14.8702 N   0  0  0  0  0  0  0  0  0  0  0  0
    6.9884   -8.2504   17.9763 C   0  0  0  0  0  0  0  0  0  0  0  0
   -0.9713   -5.1546   27.7706 C   0  0  0  0  0  0  0  0  0  0  0  0
    3.8835   -5.3880   30.7315 O   0  0  0  0  0  0  0  0  0  0  0  0
    2.7058  -13.0523   15.2554 C   0  0  0  0  0  0  0  0  0  0  0  0
    2.0670   -5.5487   26.5627 O   0  0  0  0  0  0  0  0  0  0  0  0
  1 15  4  0
  1 23  4  0
  2  9  1  0
  2 17  1  0
  2 25  1  0
  3  8  4  0
  3 24  4  0
  4 10  4  0
  4 12  1  0
  4 21  4  0
  5  7  4  0
  5 24  4  0
  6 20  1  0
  6 22  1  0
  7 12  4  0
  8 12  4  0
  9 20  1  0
  9 28  2  0
 10 13  4  0
 11 14  1  0
 11 17  1  0
 13 15  4  0
 13 27  4  0
 14 16  1  0
 16 25  1  0
 18 21  4  0
 18 27  4  0
 19 22  1  0
 22 26  1  0
 23 27  4  0
M  END
$$$$

 Created by Python create_sdf_string function

 28 33  0  0  0  0  0  0  0  0999 V2000
    0.7677  -13.9373   15.8971 C   0  0  0  0  0  0  0  0  0  0  0  0
    0.2668   -4.6205   27.5342 N   0  0  0  0  0  0  0  0  0  0  0  0
    5.7830   -8.5789   18.6076 C   0  0  0  0  0  0  0  0  0  0  0  0
    4.5057  -11.2996   16.4491 C   0  0  0  0  0  0  0  0  0  0  0  0
    7.3871   -8.8814   16.8630 C   0  0  0  0  0  0  0  0  0  0  0  0
    2.9559   -6.5216   28.8821 C   0  0  0  0  0  0  0  0  0  0  0  0
    6.6161   -9.9495   16.2988 N   0  0  0  0  0  0  0  0  0  0  0  0
    4.9759   -9.5555   18.0293 C   0  0  0  0  0  0  0  0  0  0  0  0
    1.3164   -5.2944   27.4448 C   0  0  0  0  0  0  0  0  0  0  0  0
    3.3184  -11.5943   17.0792 C   0  0  0  0  0  0  0  0  0  0  0  0
   -0.9334   -2.5965   26.7664 C   0  0  0  0  0  0  0  0  0  0  0  0
    5.3940  -10.3117   16.9677 C   0  0  0  0  0  0  0  0  0  0  0  0
    2.4553  -12.4533   16.5272 N   0  0  0  0  0  0  0  0  0  0  0  0
   -2.0771   -3.2445   26.7458 N   0  0  0  0  0  0  0  0  0  0  0  0
    1.2499  -13.1418   16.9405 C   0  0  0  0  0  0  0  0  0  0  0  0
   -2.1192   -4.6310   27.1198 C   0  0  0  0  0  0  0  0  0  0  0  0
    0.2308   -3.4974   26.4703 C   0  0  0  0  0  0  0  0  0  0  0  0
    3.8018  -12.7648   14.5988 C   0  0  0  0  0  0  0  0  0  0  0  0
    4.9332   -5.2630   28.8805 O   0  0  0  0  0  0  0  0  0  0  0  0
    1.7220   -5.8871   28.7814 C   0  0  0  0  0  0  0  0  0  0  0  0
    4.7011  -11.8753   15.2574 C   0  0  0  0  0  0  0  0  0  0  0  0
    3.9144   -5.5864   29.5130 C   0  0  0  0  0  0  0  0  0  0  0  0
    1.6712  -13.8568   14.9191 N   0  0  0  0  0  0  0  0  0  0  0  0
    6.9462   -8.3139   18.0362 C   0  0  0  0  0  0  0  0  0  0  0  0
   -0.9992   -5.1740   27.6648 C   0  0  0  0  0  0  0  0  0  0  0  0
    3.8835   -5.3710   30.8917 O   0  0  0  0  0  0  0  0  0  0  0  0
    2.0822   -5.5625   26.5365 O   0  0  0  0  0  0  0  0  0  0  0  0
    2.6822  -13.0671   15.2585 He  0  0  0  0  0  0  0  0  0  0  0  0
  1 15  4  0
  1 23  4  0
  2  9  1  0
  2 17  1  0
  2 25  1  0
  3  8  4  0
  3 12  1  0
  3 24  4  0
  4 10  4  0
  4 12  1  0
  4 21  4  0
  4 25  3  0
  5  7  4  0
  5 24  4  0
  6 20  1  0
  6 22  1  0
  7 12  4  0
  7 26  1  0
  8 12  4  0
  9 20  1  0
  9 27  2  0
 10 13  4  0
 10 15  1  0
 11 14  1  0
 11 17  1  0
 12 20  3  0
 13 15  4  0
 14 16  1  0
 14 26  4  0
 16 25  1  0
 18 21  4  0
 19 22  1  0
 22 26  1  0
M  END
$$$$

 Created by Python create_sdf_string function

 28 30  0  0  0  0  0  0  0  0999 V2000
    0.7678  -13.9171   15.9379 C   0  0  0  0  0  0  0  0  0  0  0  0
    0.2130   -4.5755   27.4243 N   0  0  0  0  0  0  0  0  0  0  0  0
    5.7782   -8.5766   18.6272 C   0  0  0  0  0  0  0  0  0  0  0  0
    4.4783  -11.2549   16.4186 C   0  0  0  0  0  0  0  0  0  0  0  0
    7.3682   -8.9356   16.8666 C   0  0  0  0  0  0  0  0  0  0  0  0
    2.9805   -6.4936   28.9018 C   0  0  0  0  0  0  0  0  0  0  0  0
    6.5839   -9.9440   16.3404 C   0  0  0  0  0  0  0  0  0  0  0  0
    4.9589   -9.5715   18.1059 C   0  0  0  0  0  0  0  0  0  0  0  0
    1.3403   -5.3273   27.5260 C   0  0  0  0  0  0  0  0  0  0  0  0
    3.2835  -11.6534   17.0579 C   0  0  0  0  0  0  0  0  0  0  0  0
   -0.8999   -2.6093   26.7870 C   0  0  0  0  0  0  0  0  0  0  0  0
    5.3530  -10.2573   16.9600 C   0  0  0  0  0  0  0  0  0  0  0  0
    2.4354  -12.5211   16.5401 N   0  0  0  0  0  0  0  0  0  0  0  0
   -2.1162   -3.2815   26.7415 N   0  0  0  0  0  0  0  0  0  0  0  0
    1.2471  -13.0907   16.9590 C   0  0  0  0  0  0  0  0  0  0  0  0
   -2.1579   -4.6104   27.1003 C   0  0  0  0  0  0  0  0  0  0  0  0
    0.2219   -3.4997   26.4859 C   0  0  0  0  0  0  0  0  0  0  0  0
    3.8358  -12.7571   14.5953 C   0  0  0  0  0  0  0  0  0  0  0  0
    4.9329   -5.2648   28.8830 O   0  0  0  0  0  0  0  0  0  0  0  0
    1.6661   -5.8543   28.7954 C   0  0  0  0  0  0  0  0  0  0  0  0
    4.7215  -11.8783   15.2117 C   0  0  0  0  0  0  0  0  0  0  0  0
    3.9635   -5.5872   29.5663 C   0  0  0  0  0  0  0  0  0  0  0  0
    1.6705  -13.8718   14.9138 N   0  0  0  0  0  0  0  0  0  0  0  0
    6.9774   -8.2769   18.0105 C   0  0  0  0  0  0  0  0  0  0  0  0
   -1.0165   -5.1931   27.7006 C   0  0  0  0  0  0  0  0  0  0  0  0
    3.8825   -5.4031   30.8031 O   0  0  0  0  0  0  0  0  0  0  0  0
    2.6946  -13.0495   15.2921 C   0  0  0  0  0  0  0  0  0  0  0  0
    2.0506   -5.5472   26.6074 O   0  0  0  0  0  0  0  0  0  0  0  0
  1 15  4  0
  1 23  4  0
  2  9  1  0
  2 17  1  0
  2 25  1  0
  3  8  4  0
  3 24  4  0
  4 10  4  0
  4 12  1  0
  4 21  4  0
  5  7  4  0
  5 24  4  0
  6 20  1  0
  6 22  1  0
  7 12  4  0
  8 12  4  0
  9 20  1  0
  9 28  2  0
 10 13  4  0
 11 14  1  0
 11 17  1  0
 13 15  4  0
 13 27  4  0
 14 16  1  0
 16 25  1  0
 18 21  4  0
 18 27  4  0
 19 22  1  0
 22 26  1  0
 23 27  4  0
M  END
$$$$

 Created by Python create_sdf_string function

 28 31  0  0  0  0  0  0  0  0999 V2000
    0.7760  -13.9303   15.8777 C   0  0  0  0  0  0  0  0  0  0  0  0
    0.1277   -4.5276   27.4136 N   0  0  0  0  0  0  0  0  0  0  0  0
    5.7161   -8.5499   18.6503 P   0  0  0  0  0  0  0  0  0  0  0  0
    4.4969  -11.2506   16.3723 C   0  0  0  0  0  0  0  0  0  0  0  0
    7.3414   -8.9874   16.8831 C   0  0  0  0  0  0  0  0  0  0  0  0
    2.9722   -6.4662   28.9069 S   0  0  0  0  0  0  0  0  0  0  0  0
    6.5541   -9.9862   16.2973 C   0  0  0  0  0  0  0  0  0  0  0  0
    1.2678   -5.3612   27.5190 C   0  0  0  0  0  0  0  0  0  0  0  0
    3.2635  -11.5827   17.0986 C   0  0  0  0  0  0  0  0  0  0  0  0
   -0.9136   -2.5727   26.7536 C   0  0  0  0  0  0  0  0  0  0  0  0
    5.3577  -10.2945   16.9912 C   0  0  0  0  0  0  0  0  0  0  0  0
    2.3958  -12.5579   16.5592 N   0  0  0  0  0  0  0  0  0  0  0  0
   -2.1361   -3.2490   26.7847 N   0  0  0  0  0  0  0  0  0  0  0  0
    1.2725  -13.1454   16.9862 C   0  0  0  0  0  0  0  0  0  0  0  0
   -2.1270   -4.6036   27.1267 C   0  0  0  0  0  0  0  0  0  0  0  0
    0.1962   -3.6004   26.5710 C   0  0  0  0  0  0  0  0  0  0  0  0
    3.7978  -12.7121   14.5984 C   0  0  0  0  0  0  0  0  0  0  0  0
    4.9221   -5.2527   28.8668 O   0  0  0  0  0  0  0  0  0  0  0  0
    1.6361   -5.7857   28.7409 C   0  0  0  0  0  0  0  0  0  0  0  0
    4.7777  -11.8540   15.1943 C   0  0  0  0  0  0  0  0  0  0  0  0
    3.9809   -5.5983   29.4844 C   0  0  0  0  0  0  0  0  0  0  0  0
    1.7801  -13.8270   14.8890 N   0  0  0  0  0  0  0  0  0  0  0  0
    6.9559   -8.2369   18.0418 C   0  0  0  0  0  0  0  0  0  0  0  0
   -1.0152   -5.1970   27.8046 C   0  0  0  0  0  0  0  0  0  0  0  0
    3.8498   -5.4425   30.8088 O   0  0  0  0  0  0  0  0  0  0  0  0
    2.1526   -5.5855   26.6052 O   0  0  0  0  0  0  0  0  0  0  0  0
    4.9699   -9.6368   18.0729 He  0  0  0  0  0  0  0  0  0  0  0  0
    2.6953  -13.1080   15.3841 He  0  0  0  0  0  0  0  0  0  0  0  0
  1 14  4  0
  1 22  4  0
  1 25  1  0
  2  8  1  0
  2 16  1  0
  2 24  1  0
  3 23  4  0
  4  9  4  0
  4 11  1  0
  4 20  4  0
  5 23  4  0
  6  7  2  0
  6  8  3  0
  6 12  1  0
  6 19  1  0
  6 21  1  0
  6 25  1  0
  7 11  4  0
  8 19  1  0
  8 26  2  0
  9 12  4  0
 10 13  1  0
 10 16  1  0
 11 23  2  0
 12 14  4  0
 13 15  1  0
 15 24  1  0
 16 18  3  0
 17 20  4  0
 18 21  1  0
 21 25  1  0
M  END
$$$$

 Created by Python create_sdf_string function

 28 30  0  0  0  0  0  0  0  0999 V2000
    0.7882  -13.9276   15.9289 C   0  0  0  0  0  0  0  0  0  0  0  0
    0.1768   -4.6255   27.3934 N   0  0  0  0  0  0  0  0  0  0  0  0
    5.7477   -8.5859   18.6381 C   0  0  0  0  0  0  0  0  0  0  0  0
    4.4554  -11.2515   16.4133 C   0  0  0  0  0  0  0  0  0  0  0  0
    7.3689   -8.9464   16.9009 C   0  0  0  0  0  0  0  0  0  0  0  0
    2.9533   -6.4191   28.8911 C   0  0  0  0  0  0  0  0  0  0  0  0
    6.5852   -9.9463   16.3482 C   0  0  0  0  0  0  0  0  0  0  0  0
    4.9416   -9.6041   18.1217 C   0  0  0  0  0  0  0  0  0  0  0  0
    1.3115   -5.3324   27.5324 C   0  0  0  0  0  0  0  0  0  0  0  0
    3.2684  -11.6480   17.0771 C   0  0  0  0  0  0  0  0  0  0  0  0
   -0.8939   -2.5978   26.7591 C   0  0  0  0  0  0  0  0  0  0  0  0
    5.3219  -10.2741   16.9613 C   0  0  0  0  0  0  0  0  0  0  0  0
    2.4294  -12.5343   16.5765 N   0  0  0  0  0  0  0  0  0  0  0  0
   -2.1594   -3.2557   26.7945 N   0  0  0  0  0  0  0  0  0  0  0  0
    1.2451  -13.1226   16.9791 C   0  0  0  0  0  0  0  0  0  0  0  0
   -2.1958   -4.6118   27.1150 C   0  0  0  0  0  0  0  0  0  0  0  0
    0.2011   -3.5209   26.5141 C   0  0  0  0  0  0  0  0  0  0  0  0
    3.8326  -12.7513   14.5912 C   0  0  0  0  0  0  0  0  0  0  0  0
    4.9542   -5.2492   28.8437 O   0  0  0  0  0  0  0  0  0  0  0  0
    1.6316   -5.8221   28.8265 C   0  0  0  0  0  0  0  0  0  0  0  0
    4.7235  -11.8626   15.1663 C   0  0  0  0  0  0  0  0  0  0  0  0
    3.9825   -5.6277   29.5293 C   0  0  0  0  0  0  0  0  0  0  0  0
    1.7133  -13.8872   14.9166 N   0  0  0  0  0  0  0  0  0  0  0  0
    6.9387   -8.2659   18.0287 C   0  0  0  0  0  0  0  0  0  0  0  0
   -1.0606   -5.1579   27.8129 C   0  0  0  0  0  0  0  0  0  0  0  0
    3.8505   -5.4700   30.7703 O   0  0  0  0  0  0  0  0  0  0  0  0
    2.7174  -13.0547   15.3081 C   0  0  0  0  0  0  0  0  0  0  0  0
    2.0714   -5.5641   26.6547 O   0  0  0  0  0  0  0  0  0  0  0  0
  1 15  4  0
  1 23  4  0
  2  9  1  0
  2 17  1  0
  2 25  1  0
  3  8  4  0
  3 24  4  0
  4 10  4  0
  4 12  1  0
  4 21  4  0
  5  7  4  0
  5 24  4  0
  6 20  1  0
  6 22  1  0
  7 12  4  0
  8 12  4  0
  9 20  1  0
  9 28  2  0
 10 13  4  0
 11 14  1  0
 11 17  1  0
 13 15  4  0
 13 27  4  0
 14 16  1  0
 16 25  1  0
 18 21  4  0
 18 27  4  0
 19 22  1  0
 22 26  1  0
 23 27  4  0
M  END
$$$$

 Created by Python create_sdf_string function

 28 34  0  0  0  0  0  0  0  0999 V2000
    0.7886  -13.9219   15.8969 C   0  0  0  0  0  0  0  0  0  0  0  0
    0.1490   -4.6358   27.4616 N   0  0  0  0  0  0  0  0  0  0  0  0
    5.8313   -8.6061   18.6631 C   0  0  0  0  0  0  0  0  0  0  0  0
    4.4547  -11.2740   16.4464 C   0  0  0  0  0  0  0  0  0  0  0  0
    7.4154   -8.9643   16.9154 C   0  0  0  0  0  0  0  0  0  0  0  0
    2.9429   -6.4072   28.8491 C   0  0  0  0  0  0  0  0  0  0  0  0
    6.4587   -9.8343   16.3401 C   0  0  0  0  0  0  0  0  0  0  0  0
    5.0057   -9.5122   18.0989 C   0  0  0  0  0  0  0  0  0  0  0  0
    1.2943   -5.3475   27.6587 C   0  0  0  0  0  0  0  0  0  0  0  0
    3.3700  -11.6142   17.0904 C   0  0  0  0  0  0  0  0  0  0  0  0
   -0.8571   -2.6032   26.7185 C   0  0  0  0  0  0  0  0  0  0  0  0
    5.3623  -10.3397   16.9137 C   0  0  0  0  0  0  0  0  0  0  0  0
    2.4681  -12.5987   16.5804 N   0  0  0  0  0  0  0  0  0  0  0  0
   -2.1723   -3.2347   26.8099 N   0  0  0  0  0  0  0  0  0  0  0  0
    1.2785  -13.1451   17.0089 C   0  0  0  0  0  0  0  0  0  0  0  0
   -2.2762   -4.6318   27.0332 P   0  0  0  0  0  0  0  0  0  0  0  0
    0.1280   -3.5213   26.5483 C   0  0  0  0  0  0  0  0  0  0  0  0
    3.8274  -12.6488   14.6248 C   0  0  0  0  0  0  0  0  0  0  0  0
    4.9708   -5.2593   28.8216 O   0  0  0  0  0  0  0  0  0  0  0  0
    1.6445   -5.8298   28.8499 S   0  0  0  0  0  0  0  0  0  0  0  0
    4.6810  -11.8520   15.1299 C   0  0  0  0  0  0  0  0  0  0  0  0
    3.9613   -5.6051   29.5340 C   0  0  0  0  0  0  0  0  0  0  0  0
    1.7661  -13.8964   14.9404 N   0  0  0  0  0  0  0  0  0  0  0  0
    6.9467   -8.2985   18.0400 C   0  0  0  0  0  0  0  0  0  0  0  0
   -0.9859   -5.1461   27.8792 C   0  0  0  0  0  0  0  0  0  0  0  0
    3.8803   -5.4602   30.7378 O   0  0  0  0  0  0  0  0  0  0  0  0
    2.7174  -13.0409   15.2777 C   0  0  0  0  0  0  0  0  0  0  0  0
    2.0128   -5.5850   26.6713 O   0  0  0  0  0  0  0  0  0  0  0  0
  1 15  4  0
  1 23  4  0
  2  9  1  0
  2 17  1  0
  2 25  1  0
  3  8  4  0
  3 24  4  0
  4 10  4  0
  4 12  1  0
  4 21  4  0
  4 27  1  0
  5  7  4  0
  5 24  4  0
  6 20  1  0
  6 22  1  0
  6 27  2  0
  8 12  4  0
  9 20  1  0
  9 28  2  0
 10 13  4  0
 10 24  4  0
 11 14  1  0
 11 16  2  0
 11 17  1  0
 13 15  4  0
 13 27  4  0
 14 16  1  0
 15 16  1  0
 16 25  1  0
 18 21  4  0
 18 27  4  0
 19 22  1  0
 22 26  1  0
 23 27  4  0
M  END
$$$$

 Created by Python create_sdf_string function

 28 30  0  0  0  0  0  0  0  0999 V2000
    0.7977  -13.9308   15.9513 C   0  0  0  0  0  0  0  0  0  0  0  0
    0.1488   -4.6231   27.4328 N   0  0  0  0  0  0  0  0  0  0  0  0
    5.8156   -8.5899   18.6764 C   0  0  0  0  0  0  0  0  0  0  0  0
    4.4705  -11.2317   16.4012 C   0  0  0  0  0  0  0  0  0  0  0  0
    7.3970   -8.9317   16.8925 C   0  0  0  0  0  0  0  0  0  0  0  0
    2.9799   -6.4337   28.8982 C   0  0  0  0  0  0  0  0  0  0  0  0
    6.5701   -9.8662   16.3350 C   0  0  0  0  0  0  0  0  0  0  0  0
    4.9888   -9.5675   18.1290 C   0  0  0  0  0  0  0  0  0  0  0  0
    1.2893   -5.3275   27.5998 C   0  0  0  0  0  0  0  0  0  0  0  0
    3.3175  -11.6824   17.0944 C   0  0  0  0  0  0  0  0  0  0  0  0
   -0.9077   -2.6057   26.7479 C   0  0  0  0  0  0  0  0  0  0  0  0
    5.3310  -10.2288   16.9540 C   0  0  0  0  0  0  0  0  0  0  0  0
    2.4639  -12.5527   16.5835 N   0  0  0  0  0  0  0  0  0  0  0  0
   -2.1888   -3.2479   26.8066 N   0  0  0  0  0  0  0  0  0  0  0  0
    1.2732  -13.1298   17.0068 C   0  0  0  0  0  0  0  0  0  0  0  0
   -2.1894   -4.6355   27.0577 C   0  0  0  0  0  0  0  0  0  0  0  0
    0.1790   -3.5460   26.5186 C   0  0  0  0  0  0  0  0  0  0  0  0
    3.8205  -12.7054   14.5705 C   0  0  0  0  0  0  0  0  0  0  0  0
    4.9544   -5.2624   28.8340 O   0  0  0  0  0  0  0  0  0  0  0  0
    1.6569   -5.7730   28.8723 N   0  0  0  0  0  0  0  0  0  0  0  0
    4.7043  -11.8062   15.1548 C   0  0  0  0  0  0  0  0  0  0  0  0
    3.9928   -5.6098   29.5310 C   0  0  0  0  0  0  0  0  0  0  0  0
    1.7293  -13.8952   14.9286 N   0  0  0  0  0  0  0  0  0  0  0  0
    7.0104   -8.2776   18.0472 C   0  0  0  0  0  0  0  0  0  0  0  0
   -1.0882   -5.1171   27.8769 C   0  0  0  0  0  0  0  0  0  0  0  0
    3.8743   -5.4630   30.7267 O   0  0  0  0  0  0  0  0  0  0  0  0
    2.7251  -13.0492   15.3072 C   0  0  0  0  0  0  0  0  0  0  0  0
    1.9804   -5.5715   26.6997 O   0  0  0  0  0  0  0  0  0  0  0  0
  1 15  4  0
  1 23  4  0
  2  9  1  0
  2 17  1  0
  2 25  1  0
  3  8  4  0
  3 24  4  0
  4 10  4  0
  4 12  1  0
  4 21  4  0
  5  7  4  0
  5 24  4  0
  6 20  1  0
  6 22  1  0
  7 12  4  0
  8 12  4  0
  9 20  1  0
  9 28  2  0
 10 13  4  0
 11 14  1  0
 11 17  1  0
 13 15  4  0
 13 27  4  0
 14 16  1  0
 16 25  1  0
 18 21  4  0
 18 27  4  0
 19 22  1  0
 22 26  1  0
 23 27  4  0
M  END
$$$$

 Created by Python create_sdf_string function

 28 33  0  0  0  0  0  0  0  0999 V2000
    0.7459  -13.9243   15.8854 C   0  0  0  0  0  0  0  0  0  0  0  0
    0.2190   -4.5829   27.4240 N   0  0  0  0  0  0  0  0  0  0  0  0
    5.8025   -8.6108   18.6902 C   0  0  0  0  0  0  0  0  0  0  0  0
    4.5088  -11.2617   16.3841 C   0  0  0  0  0  0  0  0  0  0  0  0
    7.4178   -8.9289   16.9210 C   0  0  0  0  0  0  0  0  0  0  0  0
    2.9611   -6.4173   28.8868 C   0  0  0  0  0  0  0  0  0  0  0  0
    6.5519   -9.8979   16.3550 C   0  0  0  0  0  0  0  0  0  0  0  0
    5.0689   -9.5024   18.1099 C   0  0  0  0  0  0  0  0  0  0  0  0
    1.2639   -5.2922   27.5909 C   0  0  0  0  0  0  0  0  0  0  0  0
    3.3391  -11.6953   17.0958 C   0  0  0  0  0  0  0  0  0  0  0  0
   -0.9242   -2.6056   26.7307 C   0  0  0  0  0  0  0  0  0  0  0  0
    5.4240  -10.3022   16.9558 C   0  0  0  0  0  0  0  0  0  0  0  0
    2.4502  -12.5973   16.5713 N   0  0  0  0  0  0  0  0  0  0  0  0
   -2.2126   -3.2064   26.7988 N   0  0  0  0  0  0  0  0  0  0  0  0
    1.3209  -13.1674   17.0718 C   0  0  0  0  0  0  0  0  0  0  0  0
   -2.1999   -4.6165   26.9917 C   0  0  0  0  0  0  0  0  0  0  0  0
    0.2408   -3.5410   26.5243 C   0  0  0  0  0  0  0  0  0  0  0  0
    3.8153  -12.7158   14.5395 C   0  0  0  0  0  0  0  0  0  0  0  0
    1.6335   -5.7365   28.8525 N   0  0  0  0  0  0  0  0  0  0  0  0
    4.6910  -11.8080   15.1463 C   0  0  0  0  0  0  0  0  0  0  0  0
    4.0131   -5.6259   29.5270 C   0  0  0  0  0  0  0  0  0  0  0  0
    1.7650  -13.8710   14.9638 N   0  0  0  0  0  0  0  0  0  0  0  0
    7.0229   -8.2923   18.0318 C   0  0  0  0  0  0  0  0  0  0  0  0
   -1.0337   -5.0783   27.8240 C   0  0  0  0  0  0  0  0  0  0  0  0
    3.8339   -5.4499   30.7004 O   0  0  0  0  0  0  0  0  0  0  0  0
    2.7479  -13.0031   15.3041 C   0  0  0  0  0  0  0  0  0  0  0  0
    1.9143   -5.5552   26.7208 O   0  0  0  0  0  0  0  0  0  0  0  0
    4.9455   -5.2362   28.8155 He  0  0  0  0  0  0  0  0  0  0  0  0
  1 15  4  0
  1 22  4  0
  2  9  1  0
  2 17  1  0
  2 24  1  0
  3  8  4  0
  3 21  4  0
  3 23  4  0
  4 10  4  0
  4 12  1  0
  4 20  4  0
  5  7  4  0
  5 23  4  0
  6 19  1  0
  6 21  1  0
  8 12  4  0
  9 19  1  0
  9 27  2  0
 10 11  4  0
 10 13  4  0
 11 14  1  0
 11 17  1  0
 12 27  1  0
 13 15  4  0
 13 26  4  0
 14 16  1  0
 16 18  1  0
 16 24  1  0
 18 20  4  0
 18 26  4  0
 21 23  4  0
 21 25  1  0
 22 26  4  0
M  END
$$$$

 Created by Python create_sdf_string function

 28 30  0  0  0  0  0  0  0  0999 V2000
    0.7784  -13.9198   15.9532 C   0  0  0  0  0  0  0  0  0  0  0  0
    0.1529   -4.5792   27.4273 N   0  0  0  0  0  0  0  0  0  0  0  0
    5.8294   -8.5947   18.6807 C   0  0  0  0  0  0  0  0  0  0  0  0
    4.4799  -11.2529   16.4041 C   0  0  0  0  0  0  0  0  0  0  0  0
    7.4198   -8.9397   16.8932 C   0  0  0  0  0  0  0  0  0  0  0  0
    2.9596   -6.4145   28.8899 C   0  0  0  0  0  0  0  0  0  0  0  0
    6.6033   -9.8930   16.3627 C   0  0  0  0  0  0  0  0  0  0  0  0
    5.0255   -9.5655   18.1309 C   0  0  0  0  0  0  0  0  0  0  0  0
    1.2819   -5.2897   27.5990 C   0  0  0  0  0  0  0  0  0  0  0  0
    3.3338  -11.7046   17.0988 C   0  0  0  0  0  0  0  0  0  0  0  0
   -0.9099   -2.6062   26.7314 C   0  0  0  0  0  0  0  0  0  0  0  0
    5.3721  -10.2465   16.9635 C   0  0  0  0  0  0  0  0  0  0  0  0
    2.4795  -12.5682   16.5935 N   0  0  0  0  0  0  0  0  0  0  0  0
   -2.2001   -3.2168   26.8044 N   0  0  0  0  0  0  0  0  0  0  0  0
    1.2918  -13.1637   17.0328 C   0  0  0  0  0  0  0  0  0  0  0  0
   -2.1833   -4.6346   27.0046 C   0  0  0  0  0  0  0  0  0  0  0  0
    0.1947   -3.5069   26.5031 C   0  0  0  0  0  0  0  0  0  0  0  0
    3.8334  -12.7009   14.5446 C   0  0  0  0  0  0  0  0  0  0  0  0
    4.9362   -5.2436   28.8365 O   0  0  0  0  0  0  0  0  0  0  0  0
    1.7002   -5.7006   28.8268 N   0  0  0  0  0  0  0  0  0  0  0  0
    4.7010  -11.8046   15.1412 C   0  0  0  0  0  0  0  0  0  0  0  0
    3.9889   -5.6076   29.5159 C   0  0  0  0  0  0  0  0  0  0  0  0
    1.7198  -13.8683   14.9542 N   0  0  0  0  0  0  0  0  0  0  0  0
    7.0261   -8.2821   18.0481 C   0  0  0  0  0  0  0  0  0  0  0  0
   -1.0818   -5.0562   27.8389 C   0  0  0  0  0  0  0  0  0  0  0  0
    3.8376   -5.4433   30.7065 O   0  0  0  0  0  0  0  0  0  0  0  0
    2.7288  -13.0423   15.3119 C   0  0  0  0  0  0  0  0  0  0  0  0
    1.9339   -5.5675   26.7003 O   0  0  0  0  0  0  0  0  0  0  0  0
  1 15  4  0
  1 23  4  0
  2  9  1  0
  2 17  1  0
  2 25  1  0
  3  8  4  0
  3 24  4  0
  4 10  4  0
  4 12  1  0
  4 21  4  0
  5  7  4  0
  5 24  4  0
  6 20  1  0
  6 22  1  0
  7 12  4  0
  8 12  4  0
  9 20  1  0
  9 28  2  0
 10 13  4  0
 11 14  1  0
 11 17  1  0
 13 15  4  0
 13 27  4  0
 14 16  1  0
 16 25  1  0
 18 21  4  0
 18 27  4  0
 19 22  1  0
 22 26  1  0
 23 27  4  0
M  END
$$$$

 Created by Python create_sdf_string function

 28 35  0  0  0  0  0  0  0  0999 V2000
    0.8575  -13.9345   15.9358 C   0  0  0  0  0  0  0  0  0  0  0  0
    0.0997   -4.5197   27.3861 N   0  0  0  0  0  0  0  0  0  0  0  0
    5.8136   -8.6302   18.6646 C   0  0  0  0  0  0  0  0  0  0  0  0
    4.4732  -11.3043   16.3977 C   0  0  0  0  0  0  0  0  0  0  0  0
    7.3995   -8.9616   16.8587 C   0  0  0  0  0  0  0  0  0  0  0  0
    2.9699   -6.3821   28.8872 C   0  0  0  0  0  0  0  0  0  0  0  0
    6.5559   -9.8615   16.3878 C   0  0  0  0  0  0  0  0  0  0  0  0
    5.0761   -9.5368   18.1290 C   0  0  0  0  0  0  0  0  0  0  0  0
    1.3045   -5.2744   27.6385 C   0  0  0  0  0  0  0  0  0  0  0  0
    3.2957  -11.7482   17.0886 C   0  0  0  0  0  0  0  0  0  0  0  0
   -0.8952   -2.6073   26.7229 C   0  0  0  0  0  0  0  0  0  0  0  0
    5.4036  -10.2184   16.9878 C   0  0  0  0  0  0  0  0  0  0  0  0
    2.4398  -12.5428   16.6149 N   0  0  0  0  0  0  0  0  0  0  0  0
   -2.1576   -3.2173   26.8345 N   0  0  0  0  0  0  0  0  0  0  0  0
    1.3438  -13.1683   17.0056 C   0  0  0  0  0  0  0  0  0  0  0  0
   -2.1795   -4.6092   27.0327 C   0  0  0  0  0  0  0  0  0  0  0  0
    0.2290   -3.5132   26.5058 C   0  0  0  0  0  0  0  0  0  0  0  0
    3.7810  -12.6897   14.5438 C   0  0  0  0  0  0  0  0  0  0  0  0
    4.9259   -5.2440   28.8511 O   0  0  0  0  0  0  0  0  0  0  0  0
    1.7101   -5.7232   28.8414 N   0  0  0  0  0  0  0  0  0  0  0  0
    4.7495  -11.7864   15.1772 C   0  0  0  0  0  0  0  0  0  0  0  0
    4.0067   -5.5545   29.4711 C   0  0  0  0  0  0  0  0  0  0  0  0
    1.7173  -13.8230   14.8988 N   0  0  0  0  0  0  0  0  0  0  0  0
    7.0109   -8.2860   18.0213 C   0  0  0  0  0  0  0  0  0  0  0  0
   -1.0449   -5.0449   27.8057 C   0  0  0  0  0  0  0  0  0  0  0  0
    3.8267   -5.4562   30.7017 O   0  0  0  0  0  0  0  0  0  0  0  0
    2.7213  -13.0161   15.3307 C   0  0  0  0  0  0  0  0  0  0  0  0
    1.9072   -5.5280   26.6706 He  0  0  0  0  0  0  0  0  0  0  0  0
  1 15  4  0
  1 23  4  0
  2  9  1  0
  2 17  1  0
  2 25  1  0
  3  8  4  0
  3 12  1  0
  3 24  4  0
  4 10  4  0
  4 12  1  0
  4 21  4  0
  5  7  4  0
  5 24  4  0
  6 20  1  0
  6 22  1  0
  7 12  4  0
  8 12  4  0
  8 18  4  0
  9 20  1  0
  9 23  4  0
 10 13  4  0
 11 14  1  0
 11 17  1  0
 11 23  1  0
 13 15  4  0
 13 27  4  0
 14 16  1  0
 14 18  2  0
 16 25  1  0
 18 21  4  0
 18 27  4  0
 19 22  1  0
 22 25  2  0
 22 26  1  0
 23 27  4  0
M  END
$$$$

 Created by Python create_sdf_string function

 28 30  0  0  0  0  0  0  0  0999 V2000
    0.8306  -13.9332   15.9871 C   0  0  0  0  0  0  0  0  0  0  0  0
    0.1462   -4.5509   27.4163 N   0  0  0  0  0  0  0  0  0  0  0  0
    5.8533   -8.5965   18.6681 C   0  0  0  0  0  0  0  0  0  0  0  0
    4.4787  -11.2432   16.4281 C   0  0  0  0  0  0  0  0  0  0  0  0
    7.4192   -8.9229   16.8694 C   0  0  0  0  0  0  0  0  0  0  0  0
    2.9753   -6.3717   28.8849 C   0  0  0  0  0  0  0  0  0  0  0  0
    6.5964   -9.8873   16.3415 C   0  0  0  0  0  0  0  0  0  0  0  0
    5.0322   -9.5739   18.1559 C   0  0  0  0  0  0  0  0  0  0  0  0
    1.2834   -5.2599   27.5891 C   0  0  0  0  0  0  0  0  0  0  0  0
    3.3263  -11.7106   17.1126 C   0  0  0  0  0  0  0  0  0  0  0  0
   -0.9048   -2.5855   26.7200 C   0  0  0  0  0  0  0  0  0  0  0  0
    5.3641  -10.2383   16.9802 C   0  0  0  0  0  0  0  0  0  0  0  0
    2.4850  -12.5584   16.5942 N   0  0  0  0  0  0  0  0  0  0  0  0
   -2.1716   -3.2003   26.8338 N   0  0  0  0  0  0  0  0  0  0  0  0
    1.3161  -13.1518   17.0279 C   0  0  0  0  0  0  0  0  0  0  0  0
   -2.1770   -4.6078   27.0376 C   0  0  0  0  0  0  0  0  0  0  0  0
    0.2072   -3.4837   26.4858 C   0  0  0  0  0  0  0  0  0  0  0  0
    3.8268  -12.6705   14.5652 C   0  0  0  0  0  0  0  0  0  0  0  0
    4.9462   -5.2320   28.8522 O   0  0  0  0  0  0  0  0  0  0  0  0
    1.7220   -5.6573   28.8112 N   0  0  0  0  0  0  0  0  0  0  0  0
    4.7263  -11.7883   15.1599 C   0  0  0  0  0  0  0  0  0  0  0  0
    3.9894   -5.5641   29.5262 C   0  0  0  0  0  0  0  0  0  0  0  0
    1.7026  -13.8373   14.9323 N   0  0  0  0  0  0  0  0  0  0  0  0
    7.0319   -8.2734   18.0266 C   0  0  0  0  0  0  0  0  0  0  0  0
   -1.0763   -5.0397   27.8484 C   0  0  0  0  0  0  0  0  0  0  0  0
    3.8243   -5.4469   30.7176 O   0  0  0  0  0  0  0  0  0  0  0  0
    2.7190  -13.0206   15.3064 C   0  0  0  0  0  0  0  0  0  0  0  0
    1.9187   -5.5283   26.6763 O   0  0  0  0  0  0  0  0  0  0  0  0
  1 15  4  0
  1 23  4  0
  2  9  1  0
  2 17  1  0
  2 25  1  0
  3  8  4  0
  3 24  4  0
  4 10  4  0
  4 12  1  0
  4 21  4  0
  5  7  4  0
  5 24  4  0
  6 20  1  0
  6 22  1  0
  7 12  4  0
  8 12  4  0
  9 20  1  0
  9 28  2  0
 10 13  4  0
 11 14  1  0
 11 17  1  0
 13 15  4  0
 13 27  4  0
 14 16  1  0
 16 25  1  0
 18 21  4  0
 18 27  4  0
 19 22  1  0
 22 26  1  0
 23 27  4  0
M  END
$$$$

 Created by Python create_sdf_string function

 28 32  0  0  0  0  0  0  0  0999 V2000
    0.8181  -13.8993   15.9553 C   0  0  0  0  0  0  0  0  0  0  0  0
    0.1475   -4.5813   27.4515 N   0  0  0  0  0  0  0  0  0  0  0  0
    5.8552   -8.5776   18.6264 C   0  0  0  0  0  0  0  0  0  0  0  0
    4.4814  -11.2556   16.4782 C   0  0  0  0  0  0  0  0  0  0  0  0
    7.3904   -8.8974   16.8948 C   0  0  0  0  0  0  0  0  0  0  0  0
    2.9661   -6.4182   28.8544 C   0  0  0  0  0  0  0  0  0  0  0  0
    6.6363   -9.8988   16.3590 C   0  0  0  0  0  0  0  0  0  0  0  0
    5.0686   -9.6118   18.1473 C   0  0  0  0  0  0  0  0  0  0  0  0
    1.2580   -5.2966   27.6077 C   0  0  0  0  0  0  0  0  0  0  0  0
    3.3111  -11.7237   17.0707 C   0  0  0  0  0  0  0  0  0  0  0  0
   -0.9491   -2.5700   26.7213 C   0  0  0  0  0  0  0  0  0  0  0  0
    5.3854  -10.2437   16.9760 C   0  0  0  0  0  0  0  0  0  0  0  0
    2.4674  -12.5637   16.5918 N   0  0  0  0  0  0  0  0  0  0  0  0
   -2.1691   -3.1483   26.8633 N   0  0  0  0  0  0  0  0  0  0  0  0
    1.3353  -13.1877   16.9912 C   0  0  0  0  0  0  0  0  0  0  0  0
   -2.1677   -4.6118   27.0359 C   0  0  0  0  0  0  0  0  0  0  0  0
    3.8489  -12.6692   14.5386 C   0  0  0  0  0  0  0  0  0  0  0  0
    4.9075   -5.2711   28.8048 O   0  0  0  0  0  0  0  0  0  0  0  0
    1.6776   -5.6709   28.8233 N   0  0  0  0  0  0  0  0  0  0  0  0
    4.7144  -11.7511   15.1475 C   0  0  0  0  0  0  0  0  0  0  0  0
    4.0052   -5.5564   29.5715 C   0  0  0  0  0  0  0  0  0  0  0  0
    1.7157  -13.9206   14.8996 N   0  0  0  0  0  0  0  0  0  0  0  0
    7.0192   -8.2683   18.0083 C   0  0  0  0  0  0  0  0  0  0  0  0
   -1.0778   -5.0488   27.8831 C   0  0  0  0  0  0  0  0  0  0  0  0
    3.7956   -5.4063   30.6325 O   0  0  0  0  0  0  0  0  0  0  0  0
    2.7181  -13.0433   15.3170 C   0  0  0  0  0  0  0  0  0  0  0  0
    1.9339   -5.5177   26.7015 O   0  0  0  0  0  0  0  0  0  0  0  0
    0.2126   -3.5038   26.4650 He  0  0  0  0  0  0  0  0  0  0  0  0
  1 15  4  0
  1 22  4  0
  2  9  1  0
  2 16  3  0
  2 24  1  0
  3  8  4  0
  3 23  4  0
  4 10  4  0
  4 12  1  0
  4 20  4  0
  5  7  4  0
  5 15  2  0
  5 23  4  0
  6 21  1  0
  7 12  4  0
  8 12  4  0
  9 19  1  0
  9 27  2  0
 10 13  4  0
 11 14  1  0
 12 14  1  0
 13 15  4  0
 13 26  4  0
 14 16  1  0
 16 24  1  0
 17 20  4  0
 17 26  4  0
 18 20  1  0
 18 21  1  0
 21 23  4  0
 21 25  1  0
 22 26  4  0
M  END
$$$$

 Created by Python create_sdf_string function

 28 30  0  0  0  0  0  0  0  0999 V2000
    0.8117  -13.9318   15.9708 C   0  0  0  0  0  0  0  0  0  0  0  0
    0.1409   -4.5665   27.4318 N   0  0  0  0  0  0  0  0  0  0  0  0
    5.8495   -8.5794   18.6658 C   0  0  0  0  0  0  0  0  0  0  0  0
    4.4825  -11.2265   16.4414 C   0  0  0  0  0  0  0  0  0  0  0  0
    7.4146   -8.9072   16.8731 C   0  0  0  0  0  0  0  0  0  0  0  0
    2.9646   -6.3995   28.8730 C   0  0  0  0  0  0  0  0  0  0  0  0
    6.6167   -9.8905   16.3638 C   0  0  0  0  0  0  0  0  0  0  0  0
    5.0579   -9.5806   18.1747 C   0  0  0  0  0  0  0  0  0  0  0  0
    1.2753   -5.2543   27.5946 C   0  0  0  0  0  0  0  0  0  0  0  0
    3.3238  -11.7120   17.1013 C   0  0  0  0  0  0  0  0  0  0  0  0
   -0.9163   -2.5995   26.7001 C   0  0  0  0  0  0  0  0  0  0  0  0
    5.3835  -10.2417   16.9946 C   0  0  0  0  0  0  0  0  0  0  0  0
    2.4918  -12.5654   16.5834 N   0  0  0  0  0  0  0  0  0  0  0  0
   -2.1861   -3.1737   26.8647 N   0  0  0  0  0  0  0  0  0  0  0  0
    1.3221  -13.1517   17.0117 C   0  0  0  0  0  0  0  0  0  0  0  0
   -2.1863   -4.5928   27.0474 C   0  0  0  0  0  0  0  0  0  0  0  0
    0.1553   -3.4956   26.5327 C   0  0  0  0  0  0  0  0  0  0  0  0
    3.8455  -12.6633   14.5674 C   0  0  0  0  0  0  0  0  0  0  0  0
    4.9217   -5.2632   28.8257 O   0  0  0  0  0  0  0  0  0  0  0  0
    1.7197   -5.6454   28.8145 N   0  0  0  0  0  0  0  0  0  0  0  0
    4.7111  -11.7591   15.1685 C   0  0  0  0  0  0  0  0  0  0  0  0
    3.9801   -5.5778   29.5258 C   0  0  0  0  0  0  0  0  0  0  0  0
    1.7087  -13.8967   14.9244 N   0  0  0  0  0  0  0  0  0  0  0  0
    7.0208   -8.2495   18.0222 C   0  0  0  0  0  0  0  0  0  0  0  0
   -1.0892   -5.0301   27.8924 C   0  0  0  0  0  0  0  0  0  0  0  0
    3.7966   -5.3857   30.6832 O   0  0  0  0  0  0  0  0  0  0  0  0
    2.7306  -13.0470   15.2981 C   0  0  0  0  0  0  0  0  0  0  0  0
    1.9175   -5.5163   26.6722 O   0  0  0  0  0  0  0  0  0  0  0  0
  1 15  4  0
  1 23  4  0
  2  9  1  0
  2 17  1  0
  2 25  1  0
  3  8  4  0
  3 24  4  0
  4 10  4  0
  4 12  1  0
  4 21  4  0
  5  7  4  0
  5 24  4  0
  6 20  1  0
  6 22  1  0
  7 12  4  0
  8 12  4  0
  9 20  1  0
  9 28  2  0
 10 13  4  0
 11 14  1  0
 11 17  1  0
 13 15  4  0
 13 27  4  0
 14 16  1  0
 16 25  1  0
 18 21  4  0
 18 27  4  0
 19 22  1  0
 22 26  1  0
 23 27  4  0
M  END
$$$$

 Created by Python create_sdf_string function

 28 35  0  0  0  0  0  0  0  0999 V2000
    0.8032  -13.9468   15.9481 C   0  0  0  0  0  0  0  0  0  0  0  0
    0.1598   -4.5482   27.4019 N   0  0  0  0  0  0  0  0  0  0  0  0
    5.8591   -8.5764   18.6796 C   0  0  0  0  0  0  0  0  0  0  0  0
    4.4997  -11.2575   16.4501 C   0  0  0  0  0  0  0  0  0  0  0  0
    7.4199   -8.9242   16.8898 C   0  0  0  0  0  0  0  0  0  0  0  0
    2.9546   -6.3953   28.8866 C   0  0  0  0  0  0  0  0  0  0  0  0
    6.6385   -9.9134   16.4070 C   0  0  0  0  0  0  0  0  0  0  0  0
    5.0581   -9.5583   18.1754 C   0  0  0  0  0  0  0  0  0  0  0  0
    1.3058   -5.2833   27.5836 C   0  0  0  0  0  0  0  0  0  0  0  0
    3.3139  -11.6867   17.1330 C   0  0  0  0  0  0  0  0  0  0  0  0
   -0.9153   -2.5824   26.6907 C   0  0  0  0  0  0  0  0  0  0  0  0
    5.3705  -10.2321   16.9801 C   0  0  0  0  0  0  0  0  0  0  0  0
    2.5292  -12.5375   16.5490 N   0  0  0  0  0  0  0  0  0  0  0  0
   -2.2237   -3.1983   26.8695 N   0  0  0  0  0  0  0  0  0  0  0  0
    1.3292  -13.1336   16.9843 C   0  0  0  0  0  0  0  0  0  0  0  0
   -2.1621   -4.5699   27.0274 C   0  0  0  0  0  0  0  0  0  0  0  0
    0.1596   -3.5250   26.5402 C   0  0  0  0  0  0  0  0  0  0  0  0
    3.8682  -12.6835   14.5575 C   0  0  0  0  0  0  0  0  0  0  0  0
    4.9012   -5.3009   28.8493 O   0  0  0  0  0  0  0  0  0  0  0  0
    1.7410   -5.6691   28.8351 N   0  0  0  0  0  0  0  0  0  0  0  0
    4.6997  -11.7761   15.1751 C   0  0  0  0  0  0  0  0  0  0  0  0
    3.9847   -5.5625   29.5209 C   0  0  0  0  0  0  0  0  0  0  0  0
    1.6887  -13.8948   14.9490 N   0  0  0  0  0  0  0  0  0  0  0  0
    7.0259   -8.2724   18.0275 C   0  0  0  0  0  0  0  0  0  0  0  0
   -1.0963   -5.0018   27.9248 C   0  0  0  0  0  0  0  0  0  0  0  0
    3.8296   -5.3879   30.6536 O   0  0  0  0  0  0  0  0  0  0  0  0
    2.7697  -13.0044   15.2799 C   0  0  0  0  0  0  0  0  0  0  0  0
    1.8970   -5.5195   26.6904 O   0  0  0  0  0  0  0  0  0  0  0  0
  1 15  4  0
  1 23  4  0
  2  9  1  0
  2 17  1  0
  2 25  1  0
  3  8  4  0
  3 13  4  0
  3 22  1  0
  3 24  4  0
  4 10  4  0
  4 12  1  0
  4 21  4  0
  4 24  2  0
  4 27  1  0
  5  7  4  0
  5 24  4  0
  6 20  1  0
  6 22  1  0
  7 12  4  0
  8 12  4  0
  9 20  1  0
  9 28  2  0
 10 13  4  0
 11 14  1  0
 11 17  1  0
 12 23  3  0
 13 15  4  0
 13 27  4  0
 14 16  1  0
 16 25  1  0
 18 21  4  0
 18 27  4  0
 19 22  1  0
 22 26  1  0
 23 27  4  0
M  END
$$$$

 Created by Python create_sdf_string function

 28 30  0  0  0  0  0  0  0  0999 V2000
    0.8089  -13.9368   15.9831 C   0  0  0  0  0  0  0  0  0  0  0  0
    0.1340   -4.5597   27.4231 N   0  0  0  0  0  0  0  0  0  0  0  0
    5.8599   -8.5723   18.6874 C   0  0  0  0  0  0  0  0  0  0  0  0
    4.4915  -11.2229   16.4439 C   0  0  0  0  0  0  0  0  0  0  0  0
    7.4254   -8.9272   16.8938 C   0  0  0  0  0  0  0  0  0  0  0  0
    2.9538   -6.3781   28.8904 C   0  0  0  0  0  0  0  0  0  0  0  0
    6.6261   -9.9065   16.3884 C   0  0  0  0  0  0  0  0  0  0  0  0
    5.0529   -9.5508   18.1852 C   0  0  0  0  0  0  0  0  0  0  0  0
    1.2771   -5.2573   27.5866 C   0  0  0  0  0  0  0  0  0  0  0  0
    3.3380  -11.6812   17.1141 C   0  0  0  0  0  0  0  0  0  0  0  0
   -0.9321   -2.5800   26.6956 C   0  0  0  0  0  0  0  0  0  0  0  0
    5.3853  -10.2376   17.0023 C   0  0  0  0  0  0  0  0  0  0  0  0
    2.4985  -12.5421   16.5769 N   0  0  0  0  0  0  0  0  0  0  0  0
   -2.2090   -3.1847   26.8817 N   0  0  0  0  0  0  0  0  0  0  0  0
    1.3109  -13.1254   17.0013 C   0  0  0  0  0  0  0  0  0  0  0  0
   -2.1767   -4.5907   27.0328 C   0  0  0  0  0  0  0  0  0  0  0  0
    0.1595   -3.4934   26.5009 C   0  0  0  0  0  0  0  0  0  0  0  0
    3.8673  -12.6763   14.5637 C   0  0  0  0  0  0  0  0  0  0  0  0
    4.9301   -5.2935   28.8471 O   0  0  0  0  0  0  0  0  0  0  0  0
    1.7327   -5.6198   28.7992 N   0  0  0  0  0  0  0  0  0  0  0  0
    4.7146  -11.7732   15.1826 C   0  0  0  0  0  0  0  0  0  0  0  0
    3.9771   -5.5746   29.5241 C   0  0  0  0  0  0  0  0  0  0  0  0
    1.7172  -13.8749   14.9414 N   0  0  0  0  0  0  0  0  0  0  0  0
    7.0368   -8.2627   18.0343 C   0  0  0  0  0  0  0  0  0  0  0  0
   -1.0953   -4.9834   27.9283 C   0  0  0  0  0  0  0  0  0  0  0  0
    3.8268   -5.3775   30.6893 O   0  0  0  0  0  0  0  0  0  0  0  0
    2.7470  -13.0299   15.3036 C   0  0  0  0  0  0  0  0  0  0  0  0
    1.9086   -5.5357   26.6752 O   0  0  0  0  0  0  0  0  0  0  0  0
  1 15  4  0
  1 23  4  0
  2  9  1  0
  2 17  1  0
  2 25  1  0
  3  8  4  0
  3 24  4  0
  4 10  4  0
  4 12  1  0
  4 21  4  0
  5  7  4  0
  5 24  4  0
  6 20  1  0
  6 22  1  0
  7 12  4  0
  8 12  4  0
  9 20  1  0
  9 28  2  0
 10 13  4  0
 11 14  1  0
 11 17  1  0
 13 15  4  0
 13 27  4  0
 14 16  1  0
 16 25  1  0
 18 21  4  0
 18 27  4  0
 19 22  1  0
 22 26  1  0
 23 27  4  0
M  END
$$$$

 Created by Python create_sdf_string function

 28 29  0  0  0  0  0  0  0  0999 V2000
    0.1341   -4.5520   27.4293 N   0  0  0  0  0  0  0  0  0  0  0  0
    5.8414   -8.5800   18.7058 C   0  0  0  0  0  0  0  0  0  0  0  0
    4.4923  -11.2188   16.4218 C   0  0  0  0  0  0  0  0  0  0  0  0
    7.3966   -8.8972   16.9152 C   0  0  0  0  0  0  0  0  0  0  0  0
    2.9377   -6.3410   28.8955 C   0  0  0  0  0  0  0  0  0  0  0  0
    6.6279   -9.8967   16.3674 C   0  0  0  0  0  0  0  0  0  0  0  0
    5.0968   -9.5536   18.1744 C   0  0  0  0  0  0  0  0  0  0  0  0
    1.2758   -5.2260   27.5982 C   0  0  0  0  0  0  0  0  0  0  0  0
    3.3636  -11.6506   17.1382 C   0  0  0  0  0  0  0  0  0  0  0  0
   -0.9220   -2.5919   26.6919 C   0  0  0  0  0  0  0  0  0  0  0  0
    5.4023  -10.2384   16.9811 C   0  0  0  0  0  0  0  0  0  0  0  0
    2.5021  -12.5582   16.5842 N   0  0  0  0  0  0  0  0  0  0  0  0
   -2.2228   -3.1791   26.8813 N   0  0  0  0  0  0  0  0  0  0  0  0
    1.3302  -13.1318   16.9981 C   0  0  0  0  0  0  0  0  0  0  0  0
   -2.1641   -4.5470   27.0296 C   0  0  0  0  0  0  0  0  0  0  0  0
    0.1605   -3.4723   26.4989 C   0  0  0  0  0  0  0  0  0  0  0  0
    3.8830  -12.6689   14.5823 C   0  0  0  0  0  0  0  0  0  0  0  0
    4.9210   -5.2664   28.8357 O   0  0  0  0  0  0  0  0  0  0  0  0
    1.7190   -5.6377   28.8128 N   0  0  0  0  0  0  0  0  0  0  0  0
    4.7388  -11.8030   15.1874 C   0  0  0  0  0  0  0  0  0  0  0  0
    3.9626   -5.5482   29.5096 C   0  0  0  0  0  0  0  0  0  0  0  0
    1.6957  -13.8750   14.9300 N   0  0  0  0  0  0  0  0  0  0  0  0
    7.0497   -8.2811   18.0274 C   0  0  0  0  0  0  0  0  0  0  0  0
   -1.0957   -4.9579   27.9322 C   0  0  0  0  0  0  0  0  0  0  0  0
    3.8343   -5.3760   30.7089 O   0  0  0  0  0  0  0  0  0  0  0  0
    2.7656  -13.0413   15.2798 C   0  0  0  0  0  0  0  0  0  0  0  0
    1.9027   -5.5454   26.6510 O   0  0  0  0  0  0  0  0  0  0  0  0
    0.7860  -13.9467   15.9683 He  0  0  0  0  0  0  0  0  0  0  0  0
  1  8  1  0
  1 16  1  0
  1 24  1  0
  2  7  4  0
  2 23  4  0
  3  9  4  0
  3 11  1  0
  3 20  4  0
  4  6  4  0
  4 23  4  0
  5 19  1  0
  5 21  1  0
  6 11  4  0
  7 11  4  0
  8 19  1  0
  8 27  2  0
  9 12  4  0
 10 13  1  0
 10 16  1  0
 12 14  4  0
 12 17  4  0
 12 26  4  0
 13 15  1  0
 15 24  1  0
 17 20  4  0
 17 26  4  0
 18 21  1  0
 21 25  1  0
 22 26  4  0
M  END
$$$$

 Created by Python create_sdf_string function

 28 30  0  0  0  0  0  0  0  0999 V2000
    0.8085  -13.9253   16.0025 N   0  0  0  0  0  0  0  0  0  0  0  0
    0.1275   -4.5343   27.4142 N   0  0  0  0  0  0  0  0  0  0  0  0
    5.8544   -8.5818   18.7101 C   0  0  0  0  0  0  0  0  0  0  0  0
    4.5068  -11.2157   16.4445 C   0  0  0  0  0  0  0  0  0  0  0  0
    7.4132   -8.9127   16.8946 C   0  0  0  0  0  0  0  0  0  0  0  0
    2.9330   -6.3215   28.8951 C   0  0  0  0  0  0  0  0  0  0  0  0
    6.6243   -9.8784   16.3756 C   0  0  0  0  0  0  0  0  0  0  0  0
    5.0712   -9.5570   18.1883 C   0  0  0  0  0  0  0  0  0  0  0  0
    1.2570   -5.2313   27.5947 C   0  0  0  0  0  0  0  0  0  0  0  0
    3.3544  -11.6641   17.1106 C   0  0  0  0  0  0  0  0  0  0  0  0
   -0.9380   -2.5734   26.6944 C   0  0  0  0  0  0  0  0  0  0  0  0
    5.4033  -10.2187   17.0019 C   0  0  0  0  0  0  0  0  0  0  0  0
    2.5092  -12.5394   16.5833 N   0  0  0  0  0  0  0  0  0  0  0  0
   -2.2042   -3.1704   26.8879 N   0  0  0  0  0  0  0  0  0  0  0  0
    1.3257  -13.1231   17.0023 C   0  0  0  0  0  0  0  0  0  0  0  0
   -2.1757   -4.5669   27.0399 C   0  0  0  0  0  0  0  0  0  0  0  0
    0.1545   -3.4756   26.4873 C   0  0  0  0  0  0  0  0  0  0  0  0
    3.8898  -12.6711   14.5826 C   0  0  0  0  0  0  0  0  0  0  0  0
    4.9293   -5.2667   28.8449 O   0  0  0  0  0  0  0  0  0  0  0  0
    1.7205   -5.5858   28.7938 N   0  0  0  0  0  0  0  0  0  0  0  0
    4.7342  -11.7900   15.1860 C   0  0  0  0  0  0  0  0  0  0  0  0
    3.9624   -5.5416   29.5223 C   0  0  0  0  0  0  0  0  0  0  0  0
    1.7057  -13.8709   14.9485 N   0  0  0  0  0  0  0  0  0  0  0  0
    7.0359   -8.2671   18.0530 C   0  0  0  0  0  0  0  0  0  0  0  0
   -1.0917   -4.9381   27.9348 C   0  0  0  0  0  0  0  0  0  0  0  0
    3.8434   -5.3747   30.7015 O   0  0  0  0  0  0  0  0  0  0  0  0
    2.7544  -13.0305   15.3086 C   0  0  0  0  0  0  0  0  0  0  0  0
    1.8924   -5.5373   26.6731 O   0  0  0  0  0  0  0  0  0  0  0  0
  1 15  4  0
  1 23  4  0
  2  9  1  0
  2 17  1  0
  2 25  1  0
  3  8  4  0
  3 24  4  0
  4 10  4  0
  4 12  1  0
  4 21  4  0
  5  7  4  0
  5 24  4  0
  6 20  1  0
  6 22  1  0
  7 12  4  0
  8 12  4  0
  9 20  1  0
  9 28  2  0
 10 13  4  0
 11 14  1  0
 11 17  1  0
 13 15  4  0
 13 27  4  0
 14 16  1  0
 16 25  1  0
 18 21  4  0
 18 27  4  0
 19 22  1  0
 22 26  1  0
 23 27  4  0
M  END
$$$$

 Created by Python create_sdf_string function

 28 32  0  0  0  0  0  0  0  0999 V2000
    0.8022  -13.9211   15.9910 N   0  0  0  0  0  0  0  0  0  0  0  0
    0.1275   -4.5387   27.4178 N   0  0  0  0  0  0  0  0  0  0  0  0
    5.8464   -8.5867   18.7177 C   0  0  0  0  0  0  0  0  0  0  0  0
    4.5093  -11.2209   16.4521 C   0  0  0  0  0  0  0  0  0  0  0  0
    7.4063   -8.9203   16.8965 C   0  0  0  0  0  0  0  0  0  0  0  0
    2.9448   -6.2974   28.9143 C   0  0  0  0  0  0  0  0  0  0  0  0
    6.6274   -9.8912   16.3617 C   0  0  0  0  0  0  0  0  0  0  0  0
    5.0930   -9.5343   18.1948 C   0  0  0  0  0  0  0  0  0  0  0  0
    1.2409   -5.2404   27.5983 C   0  0  0  0  0  0  0  0  0  0  0  0
    3.3514  -11.6894   17.1032 C   0  0  0  0  0  0  0  0  0  0  0  0
   -0.9487   -2.5650   26.6943 C   0  0  0  0  0  0  0  0  0  0  0  0
    5.4229  -10.2310   16.9951 C   0  0  0  0  0  0  0  0  0  0  0  0
    2.4973  -12.5375   16.5840 N   0  0  0  0  0  0  0  0  0  0  0  0
   -2.2231   -3.1303   26.8742 N   0  0  0  0  0  0  0  0  0  0  0  0
    1.3246  -13.1094   16.9932 C   0  0  0  0  0  0  0  0  0  0  0  0
   -2.1520   -4.5851   27.0392 C   0  0  0  0  0  0  0  0  0  0  0  0
    0.1694   -3.4768   26.5051 C   0  0  0  0  0  0  0  0  0  0  0  0
    3.8908  -12.6639   14.6178 C   0  0  0  0  0  0  0  0  0  0  0  0
    4.9403   -5.2810   28.8607 O   0  0  0  0  0  0  0  0  0  0  0  0
    1.7213   -5.5893   28.7827 N   0  0  0  0  0  0  0  0  0  0  0  0
    4.7282  -11.8108   15.2016 C   0  0  0  0  0  0  0  0  0  0  0  0
    3.9681   -5.5343   29.5255 C   0  0  0  0  0  0  0  0  0  0  0  0
    1.7084  -13.8642   14.9587 N   0  0  0  0  0  0  0  0  0  0  0  0
    7.0549   -8.2760   18.0481 C   0  0  0  0  0  0  0  0  0  0  0  0
   -1.0888   -4.9562   27.9297 C   0  0  0  0  0  0  0  0  0  0  0  0
    3.8442   -5.3759   30.7138 O   0  0  0  0  0  0  0  0  0  0  0  0
    2.7367  -13.0061   15.3098 C   0  0  0  0  0  0  0  0  0  0  0  0
    1.8739   -5.5259   26.6584 O   0  0  0  0  0  0  0  0  0  0  0  0
  1 15  4  0
  1 23  4  0
  2  9  3  0
  2 17  1  0
  2 25  1  0
  3  8  4  0
  3 24  4  0
  4 10  4  0
  4 12  1  0
  4 21  4  0
  4 24  4  0
  5  7  4  0
  5 24  4  0
  6 20  1  0
  6 22  1  0
  7 12  4  0
  7 15  4  0
  8 12  4  0
  9 20  1  0
  9 28  2  0
 10 13  4  0
 11 14  1  0
 11 17  1  0
 13 15  4  0
 13 27  4  0
 14 16  1  0
 16 25  1  0
 18 21  4  0
 18 27  4  0
 19 22  1  0
 22 26  1  0
 23 27  4  0
M  END
$$$$

 Created by Python create_sdf_string function

 28 30  0  0  0  0  0  0  0  0999 V2000
    0.8253  -13.8981   16.0180 N   0  0  0  0  0  0  0  0  0  0  0  0
    0.1203   -4.5282   27.4105 N   0  0  0  0  0  0  0  0  0  0  0  0
    5.8690   -8.5799   18.7189 C   0  0  0  0  0  0  0  0  0  0  0  0
    4.5017  -11.2234   16.4606 C   0  0  0  0  0  0  0  0  0  0  0  0
    7.4262   -8.9127   16.8978 C   0  0  0  0  0  0  0  0  0  0  0  0
    2.9304   -6.2812   28.9100 C   0  0  0  0  0  0  0  0  0  0  0  0
    6.6270   -9.8782   16.3737 C   0  0  0  0  0  0  0  0  0  0  0  0
    5.0722   -9.5536   18.1962 C   0  0  0  0  0  0  0  0  0  0  0  0
    1.2529   -5.2207   27.5948 C   0  0  0  0  0  0  0  0  0  0  0  0
    3.3521  -11.6719   17.1149 C   0  0  0  0  0  0  0  0  0  0  0  0
   -0.9498   -2.5534   26.6878 C   0  0  0  0  0  0  0  0  0  0  0  0
    5.4059  -10.2194   17.0112 C   0  0  0  0  0  0  0  0  0  0  0  0
    2.5107  -12.5222   16.5908 N   0  0  0  0  0  0  0  0  0  0  0  0
   -2.2328   -3.1502   26.8738 N   0  0  0  0  0  0  0  0  0  0  0  0
    1.3304  -13.0984   16.9928 C   0  0  0  0  0  0  0  0  0  0  0  0
   -2.1796   -4.5729   27.0432 C   0  0  0  0  0  0  0  0  0  0  0  0
    0.1428   -3.4656   26.4910 C   0  0  0  0  0  0  0  0  0  0  0  0
    3.8891  -12.6738   14.5973 C   0  0  0  0  0  0  0  0  0  0  0  0
    4.9542   -5.2798   28.8750 O   0  0  0  0  0  0  0  0  0  0  0  0
    1.7330   -5.5517   28.7861 N   0  0  0  0  0  0  0  0  0  0  0  0
    4.7362  -11.7937   15.2019 C   0  0  0  0  0  0  0  0  0  0  0  0
    3.9749   -5.5280   29.5422 C   0  0  0  0  0  0  0  0  0  0  0  0
    1.7295  -13.8437   14.9745 N   0  0  0  0  0  0  0  0  0  0  0  0
    7.0523   -8.2647   18.0611 C   0  0  0  0  0  0  0  0  0  0  0  0
   -1.0983   -4.9301   27.9338 C   0  0  0  0  0  0  0  0  0  0  0  0
    3.8601   -5.3701   30.7185 O   0  0  0  0  0  0  0  0  0  0  0  0
    2.7640  -13.0109   15.3252 C   0  0  0  0  0  0  0  0  0  0  0  0
    1.8766   -5.5337   26.6676 O   0  0  0  0  0  0  0  0  0  0  0  0
  1 15  4  0
  1 23  4  0
  2  9  1  0
  2 17  1  0
  2 25  1  0
  3  8  4  0
  3 24  4  0
  4 10  4  0
  4 12  1  0
  4 21  4  0
  5  7  4  0
  5 24  4  0
  6 20  1  0
  6 22  1  0
  7 12  4  0
  8 12  4  0
  9 20  1  0
  9 28  2  0
 10 13  4  0
 11 14  1  0
 11 17  1  0
 13 15  4  0
 13 27  4  0
 14 16  1  0
 16 25  1  0
 18 21  4  0
 18 27  4  0
 19 22  1  0
 22 26  1  0
 23 27  4  0
M  END
$$$$

 Created by Python create_sdf_string function

 28 31  0  0  0  0  0  0  0  0999 V2000
    0.8303  -13.8913   16.0112 N   0  0  0  0  0  0  0  0  0  0  0  0
    0.1423   -4.5077   27.4065 N   0  0  0  0  0  0  0  0  0  0  0  0
    5.8747   -8.5871   18.7195 C   0  0  0  0  0  0  0  0  0  0  0  0
    4.5012  -11.2301   16.4583 C   0  0  0  0  0  0  0  0  0  0  0  0
    7.4194   -8.9200   16.9030 C   0  0  0  0  0  0  0  0  0  0  0  0
    2.9224   -6.2858   28.8994 C   0  0  0  0  0  0  0  0  0  0  0  0
    6.6476   -9.8681   16.3929 C   0  0  0  0  0  0  0  0  0  0  0  0
    5.0912   -9.5514   18.1935 C   0  0  0  0  0  0  0  0  0  0  0  0
    1.2316   -5.2373   27.6050 C   0  0  0  0  0  0  0  0  0  0  0  0
    3.3440  -11.6832   17.1143 C   0  0  0  0  0  0  0  0  0  0  0  0
   -0.9510   -2.5585   26.6743 C   0  0  0  0  0  0  0  0  0  0  0  0
    5.4002  -10.2173   17.0079 C   0  0  0  0  0  0  0  0  0  0  0  0
    2.5277  -12.5233   16.5954 N   0  0  0  0  0  0  0  0  0  0  0  0
   -2.2267   -3.1468   26.8823 N   0  0  0  0  0  0  0  0  0  0  0  0
    1.3351  -13.0927   16.9868 C   0  0  0  0  0  0  0  0  0  0  0  0
   -2.1841   -4.5645   27.0518 C   0  0  0  0  0  0  0  0  0  0  0  0
    0.1521   -3.4649   26.4990 C   0  0  0  0  0  0  0  0  0  0  0  0
    3.8879  -12.6556   14.6086 C   0  0  0  0  0  0  0  0  0  0  0  0
    4.9548   -5.2747   28.8713 O   0  0  0  0  0  0  0  0  0  0  0  0
    1.7415   -5.5460   28.8066 N   0  0  0  0  0  0  0  0  0  0  0  0
    4.7375  -11.8097   15.1913 C   0  0  0  0  0  0  0  0  0  0  0  0
    3.9688   -5.5323   29.5237 C   0  0  0  0  0  0  0  0  0  0  0  0
    1.7284  -13.8412   14.9571 N   0  0  0  0  0  0  0  0  0  0  0  0
    7.0363   -8.2751   18.0507 C   0  0  0  0  0  0  0  0  0  0  0  0
   -1.0996   -4.9363   27.9376 C   0  0  0  0  0  0  0  0  0  0  0  0
    3.8554   -5.3616   30.7318 O   0  0  0  0  0  0  0  0  0  0  0  0
    2.7591  -13.0136   15.3193 C   0  0  0  0  0  0  0  0  0  0  0  0
    1.8707   -5.5443   26.6634 O   0  0  0  0  0  0  0  0  0  0  0  0
  1 15  4  0
  1 23  4  0
  2  9  1  0
  2 17  1  0
  2 25  1  0
  3  8  4  0
  3 24  4  0
  4 10  4  0
  4 12  1  0
  4 21  4  0
  5  7  4  0
  5 24  4  0
  6 20  1  0
  6 22  1  0
  7 12  4  0
  8 12  4  0
  9 20  1  0
  9 28  2  0
 10 13  4  0
 11 14  1  0
 11 17  1  0
 13 15  4  0
 13 27  4  0
 14 16  1  0
 16 25  1  0
 18 21  4  0
 18 27  4  0
 19 22  1  0
 21 26  1  0
 22 26  1  0
 23 27  4  0
M  END
$$$$

 Created by Python create_sdf_string function

 28 30  0  0  0  0  0  0  0  0999 V2000
    0.8418  -13.8833   16.0205 N   0  0  0  0  0  0  0  0  0  0  0  0
    0.1181   -4.5112   27.4120 N   0  0  0  0  0  0  0  0  0  0  0  0
    5.8762   -8.5814   18.7280 C   0  0  0  0  0  0  0  0  0  0  0  0
    4.5030  -11.2174   16.4676 C   0  0  0  0  0  0  0  0  0  0  0  0
    7.4309   -8.9089   16.9091 C   0  0  0  0  0  0  0  0  0  0  0  0
    2.9243   -6.2691   28.9063 C   0  0  0  0  0  0  0  0  0  0  0  0
    6.6349   -9.8689   16.3920 C   0  0  0  0  0  0  0  0  0  0  0  0
    5.0808   -9.5511   18.2056 C   0  0  0  0  0  0  0  0  0  0  0  0
    1.2449   -5.2054   27.5966 C   0  0  0  0  0  0  0  0  0  0  0  0
    3.3565  -11.6646   17.1245 C   0  0  0  0  0  0  0  0  0  0  0  0
   -0.9610   -2.5501   26.6727 C   0  0  0  0  0  0  0  0  0  0  0  0
    5.4121  -10.2132   17.0179 C   0  0  0  0  0  0  0  0  0  0  0  0
    2.5260  -12.5158   16.5899 N   0  0  0  0  0  0  0  0  0  0  0  0
   -2.2373   -3.1553   26.8886 N   0  0  0  0  0  0  0  0  0  0  0  0
    1.3482  -13.0832   16.9875 C   0  0  0  0  0  0  0  0  0  0  0  0
   -2.1934   -4.5663   27.0590 C   0  0  0  0  0  0  0  0  0  0  0  0
    0.1405   -3.4571   26.4773 C   0  0  0  0  0  0  0  0  0  0  0  0
    3.8974  -12.6679   14.5909 C   0  0  0  0  0  0  0  0  0  0  0  0
    4.9620   -5.2767   28.8849 O   0  0  0  0  0  0  0  0  0  0  0  0
    1.7396   -5.5032   28.7912 N   0  0  0  0  0  0  0  0  0  0  0  0
    4.7433  -11.7863   15.2032 C   0  0  0  0  0  0  0  0  0  0  0  0
    3.9751   -5.5306   29.5462 C   0  0  0  0  0  0  0  0  0  0  0  0
    1.7444  -13.8324   14.9751 N   0  0  0  0  0  0  0  0  0  0  0  0
    7.0486   -8.2601   18.0662 C   0  0  0  0  0  0  0  0  0  0  0  0
   -1.1064   -4.9223   27.9446 C   0  0  0  0  0  0  0  0  0  0  0  0
    3.8611   -5.3595   30.7277 O   0  0  0  0  0  0  0  0  0  0  0  0
    2.7778  -13.0068   15.3246 C   0  0  0  0  0  0  0  0  0  0  0  0
    1.8604   -5.5499   26.6804 O   0  0  0  0  0  0  0  0  0  0  0  0
  1 15  4  0
  1 23  4  0
  2  9  1  0
  2 17  1  0
  2 25  1  0
  3  8  4  0
  3 24  4  0
  4 10  4  0
  4 12  1  0
  4 21  4  0
  5  7  4  0
  5 24  4  0
  6 20  1  0
  6 22  1  0
  7 12  4  0
  8 12  4  0
  9 20  1  0
  9 28  2  0
 10 13  4  0
 11 14  1  0
 11 17  1  0
 13 15  4  0
 13 27  4  0
 14 16  1  0
 16 25  1  0
 18 21  4  0
 18 27  4  0
 19 22  1  0
 22 26  1  0
 23 27  4  0
M  END
$$$$

 Created by Python create_sdf_string function

 28 32  0  0  0  0  0  0  0  0999 V2000
    0.8415  -13.8845   16.0153 N   0  0  0  0  0  0  0  0  0  0  0  0
    0.1125   -4.5095   27.4146 N   0  0  0  0  0  0  0  0  0  0  0  0
    5.8803   -8.5828   18.7172 C   0  0  0  0  0  0  0  0  0  0  0  0
    4.5017  -11.2094   16.4754 C   0  0  0  0  0  0  0  0  0  0  0  0
    7.4292   -8.9115   16.9089 C   0  0  0  0  0  0  0  0  0  0  0  0
    2.9139   -6.2653   28.9026 C   0  0  0  0  0  0  0  0  0  0  0  0
    6.6341   -9.8698   16.3994 C   0  0  0  0  0  0  0  0  0  0  0  0
    5.0766   -9.5538   18.2073 C   0  0  0  0  0  0  0  0  0  0  0  0
    1.2504   -5.2012   27.5987 C   0  0  0  0  0  0  0  0  0  0  0  0
    3.3562  -11.6633   17.1201 C   0  0  0  0  0  0  0  0  0  0  0  0
   -0.9505   -2.5537   26.6780 C   0  0  0  0  0  0  0  0  0  0  0  0
    5.4179  -10.2260   17.0014 C   0  0  0  0  0  0  0  0  0  0  0  0
    2.5195  -12.5090   16.5896 N   0  0  0  0  0  0  0  0  0  0  0  0
   -2.2415   -3.1516   26.8830 N   0  0  0  0  0  0  0  0  0  0  0  0
    1.3516  -13.0844   16.9870 C   0  0  0  0  0  0  0  0  0  0  0  0
   -2.2010   -4.5732   27.0554 C   0  0  0  0  0  0  0  0  0  0  0  0
    0.1328   -3.4536   26.4751 C   0  0  0  0  0  0  0  0  0  0  0  0
    3.9029  -12.6690   14.5888 C   0  0  0  0  0  0  0  0  0  0  0  0
    4.9539   -5.2896   28.8840 O   0  0  0  0  0  0  0  0  0  0  0  0
    1.7364   -5.5044   28.7890 N   0  0  0  0  0  0  0  0  0  0  0  0
    4.7464  -11.7858   15.2020 N   0  0  0  0  0  0  0  0  0  0  0  0
    3.9859   -5.5259   29.5428 C   0  0  0  0  0  0  0  0  0  0  0  0
    1.7441  -13.8324   14.9749 N   0  0  0  0  0  0  0  0  0  0  0  0
    7.0502   -8.2639   18.0609 C   0  0  0  0  0  0  0  0  0  0  0  0
   -1.1087   -4.9158   27.9387 C   0  0  0  0  0  0  0  0  0  0  0  0
    3.8683   -5.3600   30.7338 O   0  0  0  0  0  0  0  0  0  0  0  0
    2.7817  -13.0045   15.3228 C   0  0  0  0  0  0  0  0  0  0  0  0
    1.8656   -5.5417   26.6808 O   0  0  0  0  0  0  0  0  0  0  0  0
  1 15  4  0
  1 23  4  0
  2  9  1  0
  2 17  1  0
  2 25  1  0
  3  8  4  0
  3 24  4  0
  4 10  4  0
  4 12  1  0
  4 21  4  0
  5  7  4  0
  5 13  1  0
  5 24  4  0
  6 20  1  0
  6 22  1  0
  7 12  4  0
  8 12  4  0
  9 20  1  0
  9 28  2  0
 10 13  4  0
 11 14  1  0
 11 17  1  0
 13 15  4  0
 13 27  4  0
 14 16  1  0
 15 19  3  0
 16 25  1  0
 18 21  4  0
 18 27  4  0
 19 22  1  0
 22 26  1  0
 23 27  4  0
M  END
$$$$

 Created by Python create_sdf_string function

 28 30  0  0  0  0  0  0  0  0999 V2000
    0.8512  -13.8756   16.0307 N   0  0  0  0  0  0  0  0  0  0  0  0
    0.1056   -4.5030   27.4078 N   0  0  0  0  0  0  0  0  0  0  0  0
    5.8774   -8.5773   18.7338 C   0  0  0  0  0  0  0  0  0  0  0  0
    4.5038  -11.2053   16.4826 C   0  0  0  0  0  0  0  0  0  0  0  0
    7.4332   -8.9092   16.9113 C   0  0  0  0  0  0  0  0  0  0  0  0
    2.9172   -6.2477   28.9089 C   0  0  0  0  0  0  0  0  0  0  0  0
    6.6286   -9.8684   16.3996 C   0  0  0  0  0  0  0  0  0  0  0  0
    5.0826   -9.5500   18.2116 C   0  0  0  0  0  0  0  0  0  0  0  0
    1.2402   -5.1847   27.5963 C   0  0  0  0  0  0  0  0  0  0  0  0
    3.3460  -11.6565   17.1345 C   0  0  0  0  0  0  0  0  0  0  0  0
   -0.9691   -2.5424   26.6766 C   0  0  0  0  0  0  0  0  0  0  0  0
    5.4192  -10.2075   17.0237 C   0  0  0  0  0  0  0  0  0  0  0  0
    2.5279  -12.5052   16.5940 N   0  0  0  0  0  0  0  0  0  0  0  0
   -2.2461   -3.1518   26.8823 N   0  0  0  0  0  0  0  0  0  0  0  0
    1.3514  -13.0742   16.9959 C   0  0  0  0  0  0  0  0  0  0  0  0
   -2.2013   -4.5673   27.0647 C   0  0  0  0  0  0  0  0  0  0  0  0
    0.1198   -3.4567   26.4630 C   0  0  0  0  0  0  0  0  0  0  0  0
    3.9070  -12.6634   14.6021 C   0  0  0  0  0  0  0  0  0  0  0  0
    4.9660   -5.2907   28.8938 O   0  0  0  0  0  0  0  0  0  0  0  0
    1.7474   -5.4606   28.7847 N   0  0  0  0  0  0  0  0  0  0  0  0
    4.7341  -11.7711   15.2299 N   0  0  0  0  0  0  0  0  0  0  0  0
    3.9795   -5.5229   29.5495 C   0  0  0  0  0  0  0  0  0  0  0  0
    1.7539  -13.8286   14.9900 N   0  0  0  0  0  0  0  0  0  0  0  0
    7.0549   -8.2553   18.0742 C   0  0  0  0  0  0  0  0  0  0  0  0
   -1.1078   -4.9030   27.9500 C   0  0  0  0  0  0  0  0  0  0  0  0
    3.8763   -5.3575   30.7269 O   0  0  0  0  0  0  0  0  0  0  0  0
    2.7768  -13.0094   15.3302 C   0  0  0  0  0  0  0  0  0  0  0  0
    1.8547   -5.5406   26.6833 O   0  0  0  0  0  0  0  0  0  0  0  0
  1 15  4  0
  1 23  4  0
  2  9  1  0
  2 17  1  0
  2 25  1  0
  3  8  4  0
  3 24  4  0
  4 10  4  0
  4 12  1  0
  4 21  4  0
  5  7  4  0
  5 24  4  0
  6 20  1  0
  6 22  1  0
  7 12  4  0
  8 12  4  0
  9 20  1  0
  9 28  2  0
 10 13  4  0
 11 14  1  0
 11 17  1  0
 13 15  4  0
 13 27  4  0
 14 16  1  0
 16 25  1  0
 18 21  4  0
 18 27  4  0
 19 22  1  0
 22 26  1  0
 23 27  4  0
M  END
$$$$

 Created by Python create_sdf_string function

 28 30  0  0  0  0  0  0  0  0999 V2000
    0.8536  -13.8751   16.0291 N   0  0  0  0  0  0  0  0  0  0  0  0
    0.1084   -4.5049   27.4107 N   0  0  0  0  0  0  0  0  0  0  0  0
    5.8786   -8.5790   18.7345 C   0  0  0  0  0  0  0  0  0  0  0  0
    4.5019  -11.2036   16.4832 C   0  0  0  0  0  0  0  0  0  0  0  0
    7.4342   -8.9076   16.9054 C   0  0  0  0  0  0  0  0  0  0  0  0
    2.9148   -6.2484   28.9092 C   0  0  0  0  0  0  0  0  0  0  0  0
    6.6277   -9.8629   16.4065 C   0  0  0  0  0  0  0  0  0  0  0  0
    5.0790   -9.5532   18.2133 C   0  0  0  0  0  0  0  0  0  0  0  0
    1.2427   -5.1849   27.5945 C   0  0  0  0  0  0  0  0  0  0  0  0
    3.3436  -11.6561   17.1334 C   0  0  0  0  0  0  0  0  0  0  0  0
   -0.9676   -2.5453   26.6773 C   0  0  0  0  0  0  0  0  0  0  0  0
    5.4221  -10.2066   17.0203 C   0  0  0  0  0  0  0  0  0  0  0  0
    2.5238  -12.5059   16.5933 N   0  0  0  0  0  0  0  0  0  0  0  0
   -2.2499   -3.1491   26.8829 N   0  0  0  0  0  0  0  0  0  0  0  0
    1.3520  -13.0715   16.9953 C   0  0  0  0  0  0  0  0  0  0  0  0
   -2.1972   -4.5735   27.0646 C   0  0  0  0  0  0  0  0  0  0  0  0
    0.1177   -3.4567   26.4651 C   0  0  0  0  0  0  0  0  0  0  0  0
    3.9034  -12.6604   14.5996 C   0  0  0  0  0  0  0  0  0  0  0  0
    4.9666   -5.2869   28.8960 O   0  0  0  0  0  0  0  0  0  0  0  0
    1.7516   -5.4592   28.7863 N   0  0  0  0  0  0  0  0  0  0  0  0
    4.7296  -11.7694   15.2298 N   0  0  0  0  0  0  0  0  0  0  0  0
    3.9733   -5.5186   29.5436 C   0  0  0  0  0  0  0  0  0  0  0  0
    1.7498  -13.8308   14.9907 N   0  0  0  0  0  0  0  0  0  0  0  0
    7.0507   -8.2560   18.0767 C   0  0  0  0  0  0  0  0  0  0  0  0
   -1.1098   -4.9064   27.9469 C   0  0  0  0  0  0  0  0  0  0  0  0
    3.8729   -5.3522   30.7249 O   0  0  0  0  0  0  0  0  0  0  0  0
    2.7791  -13.0062   15.3269 C   0  0  0  0  0  0  0  0  0  0  0  0
    1.8568   -5.5433   26.6849 O   0  0  0  0  0  0  0  0  0  0  0  0
  1 15  4  0
  1 23  4  0
  2  9  1  0
  2 17  1  0
  2 25  1  0
  3  8  4  0
  3 24  4  0
  4  7  1  0
  4 10  4  0
  4 12  1  0
  4 21  4  0
  5  7  4  0
  5 24  4  0
  6 20  1  0
  6 22  1  0
  7 12  4  0
  8 12  4  0
  9 20  1  0
  9 28  2  0
 10 13  4  0
 11 14  1  0
 11 17  1  0
 13 15  4  0
 13 27  4  0
 14 16  1  0
 18 21  4  0
 18 27  4  0
 19 22  1  0
 22 26  1  0
 23 27  4  0
M  END
$$$$

 Created by Python create_sdf_string function

 28 30  0  0  0  0  0  0  0  0999 V2000
    0.8616  -13.8678   16.0420 N   0  0  0  0  0  0  0  0  0  0  0  0
    0.1029   -4.4987   27.4122 N   0  0  0  0  0  0  0  0  0  0  0  0
    5.8822   -8.5693   18.7509 C   0  0  0  0  0  0  0  0  0  0  0  0
    4.4994  -11.1964   16.4925 C   0  0  0  0  0  0  0  0  0  0  0  0
    7.4337   -8.9037   16.9138 C   0  0  0  0  0  0  0  0  0  0  0  0
    2.9128   -6.2280   28.9127 C   0  0  0  0  0  0  0  0  0  0  0  0
    6.6155   -9.8626   16.4088 C   0  0  0  0  0  0  0  0  0  0  0  0
    5.0788   -9.5441   18.2301 C   0  0  0  0  0  0  0  0  0  0  0  0
    1.2391   -5.1741   27.5971 C   0  0  0  0  0  0  0  0  0  0  0  0
    3.3406  -11.6500   17.1413 C   0  0  0  0  0  0  0  0  0  0  0  0
   -0.9808   -2.5349   26.6747 C   0  0  0  0  0  0  0  0  0  0  0  0
    5.4110  -10.1972   17.0420 C   0  0  0  0  0  0  0  0  0  0  0  0
    2.5273  -12.4991   16.6005 N   0  0  0  0  0  0  0  0  0  0  0  0
   -2.2593   -3.1479   26.8786 N   0  0  0  0  0  0  0  0  0  0  0  0
    1.3549  -13.0615   17.0052 C   0  0  0  0  0  0  0  0  0  0  0  0
   -2.2001   -4.5680   27.0752 C   0  0  0  0  0  0  0  0  0  0  0  0
    0.1046   -3.4531   26.4538 C   0  0  0  0  0  0  0  0  0  0  0  0
    3.8984  -12.6577   14.6191 C   0  0  0  0  0  0  0  0  0  0  0  0
    4.9755   -5.2900   28.9082 O   0  0  0  0  0  0  0  0  0  0  0  0
    1.7578   -5.4237   28.7801 N   0  0  0  0  0  0  0  0  0  0  0  0
    4.7151  -11.7661   15.2460 N   0  0  0  0  0  0  0  0  0  0  0  0
    3.9816   -5.5144   29.5541 C   0  0  0  0  0  0  0  0  0  0  0  0
    1.7573  -13.8304   15.0005 N   0  0  0  0  0  0  0  0  0  0  0  0
    7.0623   -8.2473   18.0837 C   0  0  0  0  0  0  0  0  0  0  0  0
   -1.1108   -4.8985   27.9627 C   0  0  0  0  0  0  0  0  0  0  0  0
    3.8812   -5.3488   30.7272 O   0  0  0  0  0  0  0  0  0  0  0  0
    2.7738  -13.0099   15.3367 C   0  0  0  0  0  0  0  0  0  0  0  0
    1.8459   -5.5428   26.6871 O   0  0  0  0  0  0  0  0  0  0  0  0
  1 15  4  0
  1 23  4  0
  2  9  1  0
  2 17  1  0
  2 25  1  0
  3  8  4  0
  3 24  4  0
  4 10  4  0
  4 12  1  0
  4 21  4  0
  5  7  4  0
  5 24  4  0
  6 20  1  0
  6 22  1  0
  7 12  4  0
  8 12  4  0
  9 20  1  0
  9 28  2  0
 10 13  4  0
 11 14  1  0
 11 17  1  0
 13 15  4  0
 13 27  4  0
 14 16  1  0
 16 25  1  0
 18 21  4  0
 18 27  4  0
 19 22  1  0
 22 26  1  0
 23 27  4  0
M  END
$$$$

 Created by Python create_sdf_string function

 28 30  0  0  0  0  0  0  0  0999 V2000
    0.8616  -13.8678   16.0420 N   0  0  0  0  0  0  0  0  0  0  0  0
    0.1029   -4.4987   27.4122 N   0  0  0  0  0  0  0  0  0  0  0  0
    5.8822   -8.5693   18.7509 C   0  0  0  0  0  0  0  0  0  0  0  0
    4.4994  -11.1964   16.4925 C   0  0  0  0  0  0  0  0  0  0  0  0
    7.4337   -8.9037   16.9138 C   0  0  0  0  0  0  0  0  0  0  0  0
    2.9128   -6.2280   28.9127 C   0  0  0  0  0  0  0  0  0  0  0  0
    6.6155   -9.8626   16.4088 C   0  0  0  0  0  0  0  0  0  0  0  0
    5.0788   -9.5441   18.2301 C   0  0  0  0  0  0  0  0  0  0  0  0
    1.2391   -5.1741   27.5971 C   0  0  0  0  0  0  0  0  0  0  0  0
    3.3406  -11.6500   17.1413 C   0  0  0  0  0  0  0  0  0  0  0  0
   -0.9808   -2.5349   26.6747 C   0  0  0  0  0  0  0  0  0  0  0  0
    5.4110  -10.1972   17.0420 C   0  0  0  0  0  0  0  0  0  0  0  0
    2.5273  -12.4991   16.6005 N   0  0  0  0  0  0  0  0  0  0  0  0
   -2.2593   -3.1479   26.8786 N   0  0  0  0  0  0  0  0  0  0  0  0
    1.3549  -13.0615   17.0052 C   0  0  0  0  0  0  0  0  0  0  0  0
   -2.2001   -4.5680   27.0752 C   0  0  0  0  0  0  0  0  0  0  0  0
    0.1046   -3.4531   26.4538 C   0  0  0  0  0  0  0  0  0  0  0  0
    3.8984  -12.6577   14.6191 C   0  0  0  0  0  0  0  0  0  0  0  0
    4.9755   -5.2900   28.9082 O   0  0  0  0  0  0  0  0  0  0  0  0
    1.7578   -5.4237   28.7801 N   0  0  0  0  0  0  0  0  0  0  0  0
    4.7151  -11.7661   15.2460 N   0  0  0  0  0  0  0  0  0  0  0  0
    3.9816   -5.5144   29.5541 C   0  0  0  0  0  0  0  0  0  0  0  0
    1.7573  -13.8304   15.0005 N   0  0  0  0  0  0  0  0  0  0  0  0
    7.0623   -8.2473   18.0837 C   0  0  0  0  0  0  0  0  0  0  0  0
   -1.1108   -4.8985   27.9627 C   0  0  0  0  0  0  0  0  0  0  0  0
    3.8812   -5.3488   30.7272 O   0  0  0  0  0  0  0  0  0  0  0  0
    2.7738  -13.0099   15.3367 C   0  0  0  0  0  0  0  0  0  0  0  0
    1.8459   -5.5428   26.6871 O   0  0  0  0  0  0  0  0  0  0  0  0
  1 15  4  0
  1 23  4  0
  2  9  1  0
  2 17  1  0
  2 25  1  0
  3  8  4  0
  3 24  4  0
  4 10  4  0
  4 12  1  0
  4 21  4  0
  5  7  4  0
  5 24  4  0
  6 20  1  0
  6 22  1  0
  7 12  4  0
  8 12  4  0
  9 20  1  0
  9 28  2  0
 10 13  4  0
 11 14  1  0
 11 17  1  0
 13 15  4  0
 13 27  4  0
 14 16  1  0
 16 25  1  0
 18 21  4  0
 18 27  4  0
 19 22  1  0
 22 26  1  0
 23 27  4  0
M  END
$$$$

 Created by Python create_sdf_string function

 28 53  0  0  0  0  0  0  0  0999 V2000
    1.1286  -14.4471   15.8254 N   0  0  0  0  0  0  0  0  0  0  0  0
    3.4537  -10.3682   22.8766 C   0  0  0  0  0  0  0  0  0  0  0  0
    3.8840   -7.9458   22.9766 C   0  0  0  0  0  0  0  0  0  0  0  0
    7.6572   -9.0903   16.6878 Cl  0  0  0  0  0  0  0  0  0  0  0  0
    5.0911   -9.5529   18.3256 C   0  0  0  0  0  0  0  0  0  0  0  0
    1.4571   -8.5207   24.0139 F   0  0  0  0  0  0  0  0  0  0  0  0
    2.1388   -8.4498   22.1643 C   0  0  0  0  0  0  0  0  0  0  0  0
    3.3058   -6.9997   21.3926 F   0  0  0  0  0  0  0  0  0  0  0  0
    4.3255  -10.6322   24.4032 Cl  0  0  0  0  0  0  0  0  0  0  0  0
    0.7403  -12.5958   17.1674 C   0  0  0  0  0  0  0  0  0  0  0  0
    5.2618   -8.8484   23.2656 C   0  0  0  0  0  0  0  0  0  0  0  0
    1.8708   -9.0234   23.6137 F   0  0  0  0  0  0  0  0  0  0  0  0
    2.7127   -7.5491   23.0022 F   0  0  0  0  0  0  0  0  0  0  0  0
    3.0780   -7.6257   22.4666 C   0  0  0  0  0  0  0  0  0  0  0  0
    1.8772  -14.4224   15.3515 N   0  0  0  0  0  0  0  0  0  0  0  0
    2.0093   -7.5271   23.8377 B   0  0  0  0  0  0  0  0  0  0  0  0
    4.0179   -8.1541   22.9391 N   0  0  0  0  0  0  0  0  0  0  0  0
    5.6055   -8.7367   18.1661 He  0  0  0  0  0  0  0  0  0  0  0  0
    2.1995   -7.9928   23.6185 He  0  0  0  0  0  0  0  0  0  0  0  0
    4.3936   -9.0872   22.2341 He  0  0  0  0  0  0  0  0  0  0  0  0
    4.2761   -9.2144   21.5249 He  0  0  0  0  0  0  0  0  0  0  0  0
    2.6729   -8.3988   22.5601 He  0  0  0  0  0  0  0  0  0  0  0  0
    2.2991   -7.6801   21.8085 He  0  0  0  0  0  0  0  0  0  0  0  0
    3.7292   -8.9771   23.2938 He  0  0  0  0  0  0  0  0  0  0  0  0
    2.9083   -8.4698   23.6660 He  0  0  0  0  0  0  0  0  0  0  0  0
    6.6071   -8.4788   18.3658 He  0  0  0  0  0  0  0  0  0  0  0  0
    4.7663   -7.7835   22.6083 He  0  0  0  0  0  0  0  0  0  0  0  0
    2.9696   -8.7854   21.1020 He  0  0  0  0  0  0  0  0  0  0  0  0
  1  5  4  0
  1  6  1  0
  1  7  2  0
  1 10  4  0
  1 12  2  0
  1 14  1  0
  1 15  4  0
  1 17  4  0
  2  4  3  0
  2  8  1  0
  2 14  1  0
  2 16  1  0
  3  4  2  0
  3  8  3  0
  3  9  1  0
  3 12  1  0
  3 14  2  0
  3 15  3  0
  3 16  4  0
  3 17  3  0
  4  6  4  0
  4  9  3  0
  4 11  1  0
  4 12  4  0
  5  6  3  0
  5  7  4  0
  5 14  2  0
  5 15  3  0
  6  7  4  0
  6 12  1  0
  6 13  1  0
  6 15  4  0
  6 17  1  0
  7  8  3  0
  7  9  3  0
  8  9  2  0
  8 14  2  0
  8 15  4  0
  8 17  2  0
  9 10  2  0
  9 11  2  0
  9 12  4  0
  9 16  3  0
  9 17  4  0
 10 12  2  0
 11 13  4  0
 11 17  4  0
 12 15  2  0
 12 16  3  0
 13 14  3  0
 13 15  3  0
 14 16  4  0
 15 16  1  0
M  END
$$$$

 Created by Python create_sdf_string function

 28  3  0  0  0  0  0  0  0  0999 V2000
    1.9394  -12.6211   16.9194 C   0  0  0  0  0  0  0  0  0  0  0  0
    2.7495   -9.9763   21.1722 C   0  0  0  0  0  0  0  0  0  0  0  0
    5.1432   -9.2405   18.1871 C   0  0  0  0  0  0  0  0  0  0  0  0
    4.3039   -7.9079   23.3892 C   0  0  0  0  0  0  0  0  0  0  0  0
    6.1178   -8.9495   17.6533 C   0  0  0  0  0  0  0  0  0  0  0  0
    2.0484   -7.7250   25.1285 C   0  0  0  0  0  0  0  0  0  0  0  0
    4.6595   -8.7937   21.0719 C   0  0  0  0  0  0  0  0  0  0  0  0
    4.4004  -10.0270   18.0834 C   0  0  0  0  0  0  0  0  0  0  0  0
    1.6550   -8.2131   25.1019 C   0  0  0  0  0  0  0  0  0  0  0  0
    4.2207   -9.2777   19.7840 C   0  0  0  0  0  0  0  0  0  0  0  0
    2.0688   -9.7003   20.8350 C   0  0  0  0  0  0  0  0  0  0  0  0
    2.6470   -8.9734   21.9624 C   0  0  0  0  0  0  0  0  0  0  0  0
    3.6143   -8.3048   20.7289 C   0  0  0  0  0  0  0  0  0  0  0  0
    4.0529   -9.0669   24.6797 C   0  0  0  0  0  0  0  0  0  0  0  0
    1.8565  -12.1015   17.6574 C   0  0  0  0  0  0  0  0  0  0  0  0
    5.1306   -8.4040   23.0053 C   0  0  0  0  0  0  0  0  0  0  0  0
    1.7475   -8.7973   24.4631 C   0  0  0  0  0  0  0  0  0  0  0  0
    2.2739   -9.1106   21.1486 C   0  0  0  0  0  0  0  0  0  0  0  0
    3.9431   -8.4869   23.8066 C   0  0  0  0  0  0  0  0  0  0  0  0
    2.8427   -7.6460   23.8302 C   0  0  0  0  0  0  0  0  0  0  0  0
    2.8590   -8.0502   24.9017 C   0  0  0  0  0  0  0  0  0  0  0  0
    3.3702   -8.0391   22.5291 C   0  0  0  0  0  0  0  0  0  0  0  0
    2.2027  -12.7730   16.6181 C   0  0  0  0  0  0  0  0  0  0  0  0
    5.8575   -8.6053   18.3689 C   0  0  0  0  0  0  0  0  0  0  0  0
    1.9566   -7.3198   25.3324 C   0  0  0  0  0  0  0  0  0  0  0  0
    4.9628   -8.1188   22.0637 C   0  0  0  0  0  0  0  0  0  0  0  0
    2.6468  -10.6384   18.8625 C   0  0  0  0  0  0  0  0  0  0  0  0
    4.4844   -8.0810   23.2888 C   0  0  0  0  0  0  0  0  0  0  0  0
  1 15  1  0
  1 23  1  0
  5 24  4  0
M  END
$$$$

 Created by Python create_sdf_string function

 28 62  0  0  0  0  0  0  0  0999 V2000
    2.1875  -11.6506   17.3819 C   0  0  0  0  0  0  0  0  0  0  0  0
    6.1645   -9.4271   17.9146 C   0  0  0  0  0  0  0  0  0  0  0  0
    1.0782   -5.8782   23.2831 Cl  0  0  0  0  0  0  0  0  0  0  0  0
    1.1396   -9.4306   25.1744 S   0  0  0  0  0  0  0  0  0  0  0  0
    1.9151   -9.9310   19.9282 F   0  0  0  0  0  0  0  0  0  0  0  0
    3.5941   -8.3243   22.1621 Cl  0  0  0  0  0  0  0  0  0  0  0  0
    5.6946   -7.0527   20.7119 C   0  0  0  0  0  0  0  0  0  0  0  0
    2.4412  -12.2329   17.0423 C   0  0  0  0  0  0  0  0  0  0  0  0
    4.7080   -6.6690   21.9710 O   0  0  0  0  0  0  0  0  0  0  0  0
    2.3507   -7.8302   22.3763 N   0  0  0  0  0  0  0  0  0  0  0  0
    3.5623   -9.1480   24.3678 F   0  0  0  0  0  0  0  0  0  0  0  0
    3.2941   -7.7203   23.5216 O   0  0  0  0  0  0  0  0  0  0  0  0
    1.1511   -8.2695   24.9478 C   0  0  0  0  0  0  0  0  0  0  0  0
    4.6142   -7.2268   22.0941 P   0  0  0  0  0  0  0  0  0  0  0  0
    5.7588   -8.8999   18.0418 C   0  0  0  0  0  0  0  0  0  0  0  0
    3.2098   -8.5637   26.0768 F   0  0  0  0  0  0  0  0  0  0  0  0
    4.5818   -7.3299   21.1089 Cl  0  0  0  0  0  0  0  0  0  0  0  0
    4.7757   -9.9571   19.0690 C   0  0  0  0  0  0  0  0  0  0  0  0
    4.1902  -10.8043   20.1328 He  0  0  0  0  0  0  0  0  0  0  0  0
    5.5962  -10.1626   17.8546 He  0  0  0  0  0  0  0  0  0  0  0  0
    3.8991   -5.9481   22.6857 He  0  0  0  0  0  0  0  0  0  0  0  0
    5.1981  -10.9811   21.6243 He  0  0  0  0  0  0  0  0  0  0  0  0
    3.8527  -10.0952   18.0323 He  0  0  0  0  0  0  0  0  0  0  0  0
    4.7376  -10.8232   18.1545 He  0  0  0  0  0  0  0  0  0  0  0  0
    3.8172  -10.0479   24.6302 He  0  0  0  0  0  0  0  0  0  0  0  0
    2.0195   -7.8271   25.4135 He  0  0  0  0  0  0  0  0  0  0  0  0
    1.8371  -12.3805   16.5185 He  0  0  0  0  0  0  0  0  0  0  0  0
    4.4053   -7.6912   24.2297 He  0  0  0  0  0  0  0  0  0  0  0  0
  1  6  1  0
  1  8  1  0
  1  9  3  0
  1 10  4  0
  1 16  1  0
  1 17  4  0
  2  4  4  0
  2  5  4  0
  2  6  2  0
  2  7  2  0
  2 10  3  0
  2 11  1  0
  2 13  1  0
  2 14  2  0
  2 15  4  0
  2 16  1  0
  2 17  3  0
  3  5  2  0
  3  7  2  0
  3  9  3  0
  3 10  1  0
  3 12  4  0
  3 15  2  0
  3 16  2  0
  3 17  1  0
  3 18  1  0
  4  7  3  0
  4  8  1  0
  4  9  4  0
  4 11  2  0
  4 12  2  0
  4 14  4  0
  4 16  3  0
  5  9  4  0
  5 12  4  0
  5 13  4  0
  5 18  2  0
  6  7  1  0
  6  9  2  0
  6 12  1  0
  6 13  2  0
  6 14  3  0
  6 15  4  0
  7  8  2  0
  7 11  2  0
  7 13  1  0
  8 12  2  0
  8 13  4  0
  8 17  4  0
  8 18  3  0
  9 10  1  0
  9 14  2  0
 10 11  2  0
 10 12  3  0
 10 17  1  0
 12 13  4  0
 12 14  3  0
 12 16  1  0
 14 15  1  0
 14 17  1  0
 14 18  1  0
 15 17  1  0
M  END
$$$$

 Created by Python create_sdf_string function

 28  2  0  0  0  0  0  0  0  0999 V2000
    2.0521  -11.7141   17.4375 C   0  0  0  0  0  0  0  0  0  0  0  0
    3.3841  -10.4686   19.0298 C   0  0  0  0  0  0  0  0  0  0  0  0
    5.4278   -9.6416   17.6441 C   0  0  0  0  0  0  0  0  0  0  0  0
    4.0796   -6.9256   23.2415 C   0  0  0  0  0  0  0  0  0  0  0  0
    5.9843   -8.9255   17.9549 C   0  0  0  0  0  0  0  0  0  0  0  0
    1.7291   -6.9460   24.8252 C   0  0  0  0  0  0  0  0  0  0  0  0
    4.7813   -9.3568   21.6803 C   0  0  0  0  0  0  0  0  0  0  0  0
    3.6891  -10.4365   17.9547 C   0  0  0  0  0  0  0  0  0  0  0  0
    1.5313   -8.9802   26.2268 C   0  0  0  0  0  0  0  0  0  0  0  0
    4.3606  -10.5233   17.6502 C   0  0  0  0  0  0  0  0  0  0  0  0
    2.0330  -10.7580   19.0127 C   0  0  0  0  0  0  0  0  0  0  0  0
    3.9826   -8.3802   22.4589 C   0  0  0  0  0  0  0  0  0  0  0  0
    5.7992   -7.8157   20.2366 C   0  0  0  0  0  0  0  0  0  0  0  0
    3.5238   -8.6745   25.1287 C   0  0  0  0  0  0  0  0  0  0  0  0
    2.5378  -12.0011   17.0805 C   0  0  0  0  0  0  0  0  0  0  0  0
    4.7897   -7.3457   22.3155 C   0  0  0  0  0  0  0  0  0  0  0  0
    1.9767   -7.5204   26.3683 C   0  0  0  0  0  0  0  0  0  0  0  0
    3.0302   -8.3100   22.9491 C   0  0  0  0  0  0  0  0  0  0  0  0
    3.6572   -8.3190   25.1153 C   0  0  0  0  0  0  0  0  0  0  0  0
    3.6505   -7.5338   24.1924 C   0  0  0  0  0  0  0  0  0  0  0  0
    1.5466   -7.9778   26.2175 C   0  0  0  0  0  0  0  0  0  0  0  0
    4.8187   -7.7130   22.3383 C   0  0  0  0  0  0  0  0  0  0  0  0
    1.7852  -12.0397   16.8568 C   0  0  0  0  0  0  0  0  0  0  0  0
    6.0283   -8.7168   18.2456 C   0  0  0  0  0  0  0  0  0  0  0  0
    3.0282   -7.9865   26.5169 C   0  0  0  0  0  0  0  0  0  0  0  0
    5.0458   -7.8157   21.2750 C   0  0  0  0  0  0  0  0  0  0  0  0
    4.7261   -9.6866   18.6794 C   0  0  0  0  0  0  0  0  0  0  0  0
    4.5535   -7.5376   24.9938 C   0  0  0  0  0  0  0  0  0  0  0  0
  1 15  4  0
  5 24  4  0
M  END
$$$$

 Created by Python create_sdf_string function

 28 59  0  0  0  0  0  0  0  0999 V2000
    2.3389  -11.6974   17.9294 F   0  0  0  0  0  0  0  0  0  0  0  0
    2.4575   -9.0559   18.5117 C   0  0  0  0  0  0  0  0  0  0  0  0
    5.4769   -9.7652   17.8408 C   0  0  0  0  0  0  0  0  0  0  0  0
    5.9872   -8.6451   17.8658 C   0  0  0  0  0  0  0  0  0  0  0  0
    3.4001  -10.2276   17.8119 N   0  0  0  0  0  0  0  0  0  0  0  0
    0.1471   -9.5167   24.7870 C   0  0  0  0  0  0  0  0  0  0  0  0
    3.5985  -11.5089   18.9609 O   0  0  0  0  0  0  0  0  0  0  0  0
    1.3661  -10.1606   18.7921 N   0  0  0  0  0  0  0  0  0  0  0  0
    3.9299   -7.9371   20.4068 C   0  0  0  0  0  0  0  0  0  0  0  0
    2.5253   -8.7301   24.1418 C   0  0  0  0  0  0  0  0  0  0  0  0
    3.0407  -11.1991   17.0466 F   0  0  0  0  0  0  0  0  0  0  0  0
    4.6842   -8.8230   24.4635 N   0  0  0  0  0  0  0  0  0  0  0  0
    2.3180   -6.9083   26.2169 S   0  0  0  0  0  0  0  0  0  0  0  0
    3.8954   -6.2935   23.6619 Cl  0  0  0  0  0  0  0  0  0  0  0  0
    1.5473  -11.9991   17.3705 C   0  0  0  0  0  0  0  0  0  0  0  0
    5.8642   -8.1398   18.1992 C   0  0  0  0  0  0  0  0  0  0  0  0
    4.7637   -7.2306   24.6029 C   0  0  0  0  0  0  0  0  0  0  0  0
    3.4524   -6.1434   22.1398 He  0  0  0  0  0  0  0  0  0  0  0  0
    2.5648   -7.5403   23.1440 He  0  0  0  0  0  0  0  0  0  0  0  0
    4.1982   -8.8247   19.6691 He  0  0  0  0  0  0  0  0  0  0  0  0
    9.0351   -8.6778   20.8847 He  0  0  0  0  0  0  0  0  0  0  0  0
    5.4140   -8.2071   22.6550 He  0  0  0  0  0  0  0  0  0  0  0  0
    2.0872   -5.6502   26.3484 He  0  0  0  0  0  0  0  0  0  0  0  0
    2.9117   -6.9519   23.8547 He  0  0  0  0  0  0  0  0  0  0  0  0
    4.7050   -9.3000   25.8175 He  0  0  0  0  0  0  0  0  0  0  0  0
    0.7885   -8.0418   24.0915 He  0  0  0  0  0  0  0  0  0  0  0  0
    5.7419   -6.7550   20.9604 He  0  0  0  0  0  0  0  0  0  0  0  0
    4.8998   -9.2149   18.3864 He  0  0  0  0  0  0  0  0  0  0  0  0
  1  2  2  0
  1  3  3  0
  1  5  4  0
  1  6  3  0
  1  7  3  0
  1 10  4  0
  1 11  3  0
  1 16  1  0
  1 17  3  0
  2  7  4  0
  2  8  3  0
  2  9  2  0
  2 11  2  0
  2 17  3  0
  3  5  1  0
  3  7  1  0
  3  8  1  0
  3  9  1  0
  3 10  2  0
  3 13  4  0
  3 14  3  0
  3 15  2  0
  4  6  3  0
  4 10  3  0
  4 12  4  0
  4 14  3  0
  4 15  2  0
  5  6  2  0
  5  8  1  0
  5 11  3  0
  5 14  1  0
  5 16  4  0
  6  9  4  0
  6 11  1  0
  6 15  2  0
  7 11  2  0
  7 13  1  0
  7 14  1  0
  7 16  1  0
  8  9  4  0
  8 15  1  0
  8 16  3  0
  9 10  4  0
  9 13  4  0
  9 16  1  0
  9 17  1  0
 10 12  4  0
 10 13  2  0
 10 14  1  0
 10 16  1  0
 11 13  1  0
 12 15  4  0
 12 16  2  0
 13 14  3  0
 13 15  4  0
 13 16  4  0
 14 15  4  0
 14 17  1  0
 15 17  1  0
M  END
$$$$

 Created by Python create_sdf_string function

 28  3  0  0  0  0  0  0  0  0999 V2000
    2.0304  -11.5888   17.6871 C   0  0  0  0  0  0  0  0  0  0  0  0
    2.2972   -9.8863   17.8237 C   0  0  0  0  0  0  0  0  0  0  0  0
    5.6028   -9.3798   17.7219 C   0  0  0  0  0  0  0  0  0  0  0  0
    4.3788   -7.2997   22.6682 C   0  0  0  0  0  0  0  0  0  0  0  0
    6.3903   -8.3632   17.9016 C   0  0  0  0  0  0  0  0  0  0  0  0
    3.2975   -7.8146   23.9156 C   0  0  0  0  0  0  0  0  0  0  0  0
    5.1504   -8.8820   19.0976 C   0  0  0  0  0  0  0  0  0  0  0  0
    3.6013  -10.1818   17.6493 C   0  0  0  0  0  0  0  0  0  0  0  0
    1.3577   -9.1252   26.1066 C   0  0  0  0  0  0  0  0  0  0  0  0
    3.1487  -10.9799   18.2614 C   0  0  0  0  0  0  0  0  0  0  0  0
    1.3198  -10.5611   18.3679 C   0  0  0  0  0  0  0  0  0  0  0  0
    4.9979   -8.2854   20.6445 C   0  0  0  0  0  0  0  0  0  0  0  0
    7.2628   -7.9521   19.2680 C   0  0  0  0  0  0  0  0  0  0  0  0
    2.5104   -8.2972   25.3577 C   0  0  0  0  0  0  0  0  0  0  0  0
    2.9834  -11.2443   17.1625 C   0  0  0  0  0  0  0  0  0  0  0  0
    5.4128   -7.9228   22.7602 C   0  0  0  0  0  0  0  0  0  0  0  0
    2.1797   -6.0699   26.7059 C   0  0  0  0  0  0  0  0  0  0  0  0
    3.4192   -7.1863   24.8996 C   0  0  0  0  0  0  0  0  0  0  0  0
    4.1868   -8.0588   26.3532 C   0  0  0  0  0  0  0  0  0  0  0  0
    4.9682   -7.8499   25.0262 C   0  0  0  0  0  0  0  0  0  0  0  0
    2.2584   -6.8827   26.7486 C   0  0  0  0  0  0  0  0  0  0  0  0
    4.0268   -6.9908   24.6119 C   0  0  0  0  0  0  0  0  0  0  0  0
    1.2701  -11.6694   17.6929 C   0  0  0  0  0  0  0  0  0  0  0  0
    6.4099   -8.1857   18.2120 C   0  0  0  0  0  0  0  0  0  0  0  0
    1.4812   -8.1820   25.6338 C   0  0  0  0  0  0  0  0  0  0  0  0
    5.6248   -7.8194   21.1785 C   0  0  0  0  0  0  0  0  0  0  0  0
    5.3691   -9.1474   18.1107 C   0  0  0  0  0  0  0  0  0  0  0  0
    4.7399   -7.3309   25.3730 C   0  0  0  0  0  0  0  0  0  0  0  0
  2 11  4  0
  5 24  4  0
 17 21  1  0
M  END
$$$$

 Created by Python create_sdf_string function

 28 66  0  0  0  0  0  0  0  0999 V2000
    2.0198  -12.0362   17.4626 C   0  0  0  0  0  0  0  0  0  0  0  0
    4.2974   -8.3595   17.0935 C   0  0  0  0  0  0  0  0  0  0  0  0
    6.1058   -9.6088   17.8524 C   0  0  0  0  0  0  0  0  0  0  0  0
    4.6395   -8.0007   23.9899 Cl  0  0  0  0  0  0  0  0  0  0  0  0
    3.4649  -10.7309   17.7617 C   0  0  0  0  0  0  0  0  0  0  0  0
    0.9550   -8.3898   18.4545 C   0  0  0  0  0  0  0  0  0  0  0  0
    4.4981   -7.9997   19.5626 O   0  0  0  0  0  0  0  0  0  0  0  0
    2.7937  -11.6054   17.3276 C   0  0  0  0  0  0  0  0  0  0  0  0
    4.9156   -7.4776   21.7974 O   0  0  0  0  0  0  0  0  0  0  0  0
    2.6902   -4.8931   27.4804 S   0  0  0  0  0  0  0  0  0  0  0  0
    2.1257   -7.6607   24.0766 O   0  0  0  0  0  0  0  0  0  0  0  0
    5.3052   -7.9157   23.6657 F   0  0  0  0  0  0  0  0  0  0  0  0
   -1.0796   -7.3854   25.3926 S   0  0  0  0  0  0  0  0  0  0  0  0
    5.3714   -7.8026   24.6434 C   0  0  0  0  0  0  0  0  0  0  0  0
    1.1362  -12.0720   17.0746 C   0  0  0  0  0  0  0  0  0  0  0  0
    6.1697   -8.4651   17.9293 C   0  0  0  0  0  0  0  0  0  0  0  0
    0.7771   -6.5900   26.3942 O   0  0  0  0  0  0  0  0  0  0  0  0
    4.9472   -5.3541   21.1976 O   0  0  0  0  0  0  0  0  0  0  0  0
    6.3789   -8.7128   17.7211 He  0  0  0  0  0  0  0  0  0  0  0  0
    2.4224   -6.8558   24.4250 He  0  0  0  0  0  0  0  0  0  0  0  0
    4.5163   -9.4091   19.6631 He  0  0  0  0  0  0  0  0  0  0  0  0
    1.9472   -9.0172   26.8259 He  0  0  0  0  0  0  0  0  0  0  0  0
    2.0817  -10.8421   17.8718 He  0  0  0  0  0  0  0  0  0  0  0  0
    5.7157   -7.9493   18.5685 He  0  0  0  0  0  0  0  0  0  0  0  0
    2.4126   -8.2076   25.9870 He  0  0  0  0  0  0  0  0  0  0  0  0
    3.2468   -8.2730   24.5826 He  0  0  0  0  0  0  0  0  0  0  0  0
    5.1560   -7.7272   16.8405 He  0  0  0  0  0  0  0  0  0  0  0  0
    5.4278   -6.7763   25.1500 He  0  0  0  0  0  0  0  0  0  0  0  0
  1  2  3  0
  1  4  4  0
  1  7  3  0
  1  8  4  0
  1 10  2  0
  1 11  2  0
  1 14  4  0
  1 17  3  0
  1 18  2  0
  2  4  2  0
  2  8  3  0
  2 11  4  0
  2 12  2  0
  3  5  2  0
  3  6  1  0
  3  9  3  0
  3 12  1  0
  3 13  3  0
  3 14  4  0
  3 17  3  0
  4  5  2  0
  4  8  4  0
  4 10  1  0
  4 11  4  0
  4 14  4  0
  4 15  3  0
  4 18  4  0
  5  6  3  0
  5 10  3  0
  5 13  4  0
  5 18  4  0
  6  7  3  0
  6  8  4  0
  6 10  2  0
  6 13  2  0
  6 14  2  0
  6 18  4  0
  7 13  3  0
  8 10  2  0
  8 12  4  0
  8 13  4  0
  8 14  2  0
  9 10  1  0
  9 11  1  0
  9 12  4  0
  9 13  3  0
  9 15  2  0
  9 17  3  0
  9 18  4  0
 10 11  2  0
 10 12  4  0
 10 13  3  0
 10 15  4  0
 10 17  3  0
 11 12  3  0
 11 13  3  0
 11 14  4  0
 11 17  3  0
 12 14  2  0
 12 15  3  0
 12 16  3  0
 12 17  1  0
 13 17  2  0
 15 17  4  0
 16 17  4  0
 17 18  4  0
M  END
$$$$

 Created by Python create_sdf_string function

 28  6  0  0  0  0  0  0  0  0999 V2000
    2.0565  -11.8197   17.4143 C   0  0  0  0  0  0  0  0  0  0  0  0
    4.2091   -8.6862   17.2449 C   0  0  0  0  0  0  0  0  0  0  0  0
    5.7687   -9.3619   17.6404 C   0  0  0  0  0  0  0  0  0  0  0  0
    4.9148   -7.5858   24.6051 C   0  0  0  0  0  0  0  0  0  0  0  0
    6.4371   -8.4365   17.7127 C   0  0  0  0  0  0  0  0  0  0  0  0
    3.0232   -6.9393   26.0138 C   0  0  0  0  0  0  0  0  0  0  0  0
    4.6982   -9.5728   18.5678 C   0  0  0  0  0  0  0  0  0  0  0  0
    3.4254  -10.4450   17.6490 C   0  0  0  0  0  0  0  0  0  0  0  0
    1.8457   -8.3318   27.0642 C   0  0  0  0  0  0  0  0  0  0  0  0
    1.9463  -10.4511   17.5845 C   0  0  0  0  0  0  0  0  0  0  0  0
    1.4866   -9.7515   17.4405 C   0  0  0  0  0  0  0  0  0  0  0  0
    5.5122   -8.2965   19.3326 C   0  0  0  0  0  0  0  0  0  0  0  0
    5.9359   -8.0589   18.7055 C   0  0  0  0  0  0  0  0  0  0  0  0
    2.3362   -7.7776   26.7138 C   0  0  0  0  0  0  0  0  0  0  0  0
    2.7646  -11.4500   17.5310 C   0  0  0  0  0  0  0  0  0  0  0  0
    5.2495   -7.8386   22.0576 C   0  0  0  0  0  0  0  0  0  0  0  0
    2.3347   -5.5126   27.2391 C   0  0  0  0  0  0  0  0  0  0  0  0
    3.0119   -7.6037   25.3170 C   0  0  0  0  0  0  0  0  0  0  0  0
    3.6341   -7.7537   25.7029 C   0  0  0  0  0  0  0  0  0  0  0  0
    5.1948   -7.6843   23.8019 C   0  0  0  0  0  0  0  0  0  0  0  0
    0.4022   -6.3737   26.8281 C   0  0  0  0  0  0  0  0  0  0  0  0
    5.1075   -7.5186   25.3029 C   0  0  0  0  0  0  0  0  0  0  0  0
    1.1257  -11.6360   17.3298 C   0  0  0  0  0  0  0  0  0  0  0  0
    6.3045   -8.1061   17.9823 C   0  0  0  0  0  0  0  0  0  0  0  0
    1.0589   -6.2421   27.2422 C   0  0  0  0  0  0  0  0  0  0  0  0
    5.4402   -7.7694   21.6113 C   0  0  0  0  0  0  0  0  0  0  0  0
    5.1686   -8.0514   17.0595 C   0  0  0  0  0  0  0  0  0  0  0  0
    5.0572   -7.0409   26.0116 C   0  0  0  0  0  0  0  0  0  0  0  0
  1 15  4  0
  1 23  4  0
  5 24  4  0
  9 14  1  0
 10 11  4  0
 21 25  1  0
M  END
$$$$

 Created by Python create_sdf_string function

 28 50  0  0  0  0  0  0  0  0999 V2000
    1.9461  -11.3690   17.8103 C   0  0  0  0  0  0  0  0  0  0  0  0
    6.0419  -10.0421   17.7115 O   0  0  0  0  0  0  0  0  0  0  0  0
    5.4592   -9.4485   16.5505 C   0  0  0  0  0  0  0  0  0  0  0  0
    4.7511   -6.9710   23.6059 C   0  0  0  0  0  0  0  0  0  0  0  0
    6.5912   -8.0171   18.1315 Cl  0  0  0  0  0  0  0  0  0  0  0  0
    3.9813   -9.7688   17.2831 C   0  0  0  0  0  0  0  0  0  0  0  0
    1.1640  -10.6060   17.7274 N   0  0  0  0  0  0  0  0  0  0  0  0
    6.4845   -8.7666   17.1243 S   0  0  0  0  0  0  0  0  0  0  0  0
    3.1036   -7.6276   26.0542 P   0  0  0  0  0  0  0  0  0  0  0  0
    2.3682  -10.9363   17.5222 C   0  0  0  0  0  0  0  0  0  0  0  0
    3.8152   -8.0794   27.5399 S   0  0  0  0  0  0  0  0  0  0  0  0
    3.5778   -7.0663   26.6121 S   0  0  0  0  0  0  0  0  0  0  0  0
    1.3423  -11.9168   17.2264 C   0  0  0  0  0  0  0  0  0  0  0  0
    6.5449   -7.7687   17.2871 C   0  0  0  0  0  0  0  0  0  0  0  0
    4.7160   -7.6951   22.1737 F   0  0  0  0  0  0  0  0  0  0  0  0
    5.8744   -8.5241   16.9416 F   0  0  0  0  0  0  0  0  0  0  0  0
    4.5329   -8.1772   24.9557 O   0  0  0  0  0  0  0  0  0  0  0  0
    2.2878   -6.1205   26.0346 He  0  0  0  0  0  0  0  0  0  0  0  0
    3.9106   -9.4148   18.5931 He  0  0  0  0  0  0  0  0  0  0  0  0
    1.9421   -6.9517   26.1587 He  0  0  0  0  0  0  0  0  0  0  0  0
   -0.2024   -9.9461   19.1026 He  0  0  0  0  0  0  0  0  0  0  0  0
    4.9906   -8.9188   21.2297 He  0  0  0  0  0  0  0  0  0  0  0  0
    5.6109   -7.8780   21.9154 He  0  0  0  0  0  0  0  0  0  0  0  0
    2.7855   -5.8062   28.2666 He  0  0  0  0  0  0  0  0  0  0  0  0
    5.7106   -7.5692   23.8332 He  0  0  0  0  0  0  0  0  0  0  0  0
   -1.8490   -4.8857   26.2421 He  0  0  0  0  0  0  0  0  0  0  0  0
    5.5460   -7.7818   27.6013 He  0  0  0  0  0  0  0  0  0  0  0  0
    2.4183   -6.2043   26.5109 He  0  0  0  0  0  0  0  0  0  0  0  0
  1  8  1  0
  1 10  4  0
  1 11  2  0
  1 12  2  0
  1 13  4  0
  1 15  4  0
  1 16  3  0
  2  3  4  0
  2  4  1  0
  2  5  1  0
  2  7  4  0
  2  9  1  0
  2 14  2  0
  2 17  2  0
  3  5  1  0
  3 11  4  0
  3 14  3  0
  3 15  1  0
  4  5  2  0
  4  6  4  0
  4  7  4  0
  4 15  2  0
  5 14  4  0
  6  9  3  0
  6 11  1  0
  6 12  2  0
  6 15  3  0
  7  8  3  0
  7 10  4  0
  7 11  4  0
  7 12  2  0
  7 13  4  0
  7 14  3  0
  8  9  4  0
  8 16  2  0
  8 17  2  0
  9 12  3  0
  9 15  3  0
  9 16  4  0
 10 13  4  0
 10 17  4  0
 11 13  1  0
 11 14  1  0
 12 14  4  0
 12 17  1  0
 13 14  4  0
 13 15  2  0
 14 15  4  0
 14 16  2  0
 15 17  1  0
M  END
$$$$

 Created by Python create_sdf_string function

 28  7  0  0  0  0  0  0  0  0999 V2000
    1.9767  -11.1291   17.4918 C   0  0  0  0  0  0  0  0  0  0  0  0
    5.4276   -9.3679   17.7948 C   0  0  0  0  0  0  0  0  0  0  0  0
    5.4478   -9.5332   16.8544 C   0  0  0  0  0  0  0  0  0  0  0  0
    5.0360   -7.7217   24.1453 C   0  0  0  0  0  0  0  0  0  0  0  0
    6.6733   -7.9111   18.5166 C   0  0  0  0  0  0  0  0  0  0  0  0
    1.6029   -5.8895   26.6732 C   0  0  0  0  0  0  0  0  0  0  0  0
    3.8967   -9.7943   18.0163 C   0  0  0  0  0  0  0  0  0  0  0  0
    3.8828   -9.9573   17.4704 C   0  0  0  0  0  0  0  0  0  0  0  0
    1.4700   -6.3137   26.7472 C   0  0  0  0  0  0  0  0  0  0  0  0
    0.9821  -10.2165   17.9063 N   0  0  0  0  0  0  0  0  0  0  0  0
    0.4717  -10.3817   18.2480 C   0  0  0  0  0  0  0  0  0  0  0  0
    5.5622   -8.5736   20.4548 C   0  0  0  0  0  0  0  0  0  0  0  0
    6.2981   -8.4418   17.3097 C   0  0  0  0  0  0  0  0  0  0  0  0
    3.4482   -7.2604   26.2896 C   0  0  0  0  0  0  0  0  0  0  0  0
    2.4964  -10.6507   17.4967 C   0  0  0  0  0  0  0  0  0  0  0  0
    5.5553   -8.1351   21.8289 C   0  0  0  0  0  0  0  0  0  0  0  0
    2.2531   -5.9448   27.8467 C   0  0  0  0  0  0  0  0  0  0  0  0
    4.0135   -7.5711   27.3138 C   0  0  0  0  0  0  0  0  0  0  0  0
    3.8916   -7.1027   26.7902 C   0  0  0  0  0  0  0  0  0  0  0  0
    5.2740   -7.8397   24.3279 C   0  0  0  0  0  0  0  0  0  0  0  0
   -0.1495   -5.3935   26.7887 C   0  0  0  0  0  0  0  0  0  0  0  0
    5.4361   -7.6858   26.8992 C   0  0  0  0  0  0  0  0  0  0  0  0
    1.3497  -11.6591   17.3838 C   0  0  0  0  0  0  0  0  0  0  0  0
    6.7815   -7.7509   17.6291 C   0  0  0  0  0  0  0  0  0  0  0  0
    1.8100   -6.0021   26.9349 C   0  0  0  0  0  0  0  0  0  0  0  0
    5.4048   -8.0512   22.2973 C   0  0  0  0  0  0  0  0  0  0  0  0
    5.8021   -8.5356   17.1447 C   0  0  0  0  0  0  0  0  0  0  0  0
    4.8847   -7.7280   25.3134 C   0  0  0  0  0  0  0  0  0  0  0  0
  1 15  4  0
  1 23  4  0
  2  3  4  0
  5 24  4  0
  7  8  4  0
 10 11  4  0
 16 26  1  0
M  END
$$$$

 Created by Python create_sdf_string function

 28 55  0  0  0  0  0  0  0  0999 V2000
    2.1577  -11.7686   17.7876 C   0  0  0  0  0  0  0  0  0  0  0  0
    5.2836   -8.9047   24.3832 N   0  0  0  0  0  0  0  0  0  0  0  0
    0.8392   -5.9497   26.8920 S   0  0  0  0  0  0  0  0  0  0  0  0
    3.9234  -10.6852   18.7231 O   0  0  0  0  0  0  0  0  0  0  0  0
    3.6340  -10.2904   17.3415 C   0  0  0  0  0  0  0  0  0  0  0  0
    2.1936   -8.7068   19.5374 C   0  0  0  0  0  0  0  0  0  0  0  0
    2.3105  -11.1876   17.8325 B   0  0  0  0  0  0  0  0  0  0  0  0
    5.3157   -8.5576   23.8136 P   0  0  0  0  0  0  0  0  0  0  0  0
    3.1650   -8.4104   27.8278 C   0  0  0  0  0  0  0  0  0  0  0  0
    5.6996   -7.0920   28.3717 Se  0  0  0  0  0  0  0  0  0  0  0  0
    5.4771   -9.5690   24.5757 N   0  0  0  0  0  0  0  0  0  0  0  0
    5.7952   -8.7843   26.8559 C   0  0  0  0  0  0  0  0  0  0  0  0
    1.1494  -11.1477   17.1672 C   0  0  0  0  0  0  0  0  0  0  0  0
    6.7381   -7.6277   17.1620 C   0  0  0  0  0  0  0  0  0  0  0  0
    1.6420   -5.0845   27.6287 O   0  0  0  0  0  0  0  0  0  0  0  0
    6.0023  -10.2846   15.2156 P   0  0  0  0  0  0  0  0  0  0  0  0
    6.8577   -7.1991   24.9956 O   0  0  0  0  0  0  0  0  0  0  0  0
    5.4617   -8.2904   18.2982 He  0  0  0  0  0  0  0  0  0  0  0  0
    6.1357   -9.6629   16.7793 He  0  0  0  0  0  0  0  0  0  0  0  0
    7.2371   -6.9948   18.5647 He  0  0  0  0  0  0  0  0  0  0  0  0
    1.6419   -7.5440   26.8503 He  0  0  0  0  0  0  0  0  0  0  0  0
    0.5190   -9.9420   14.9053 He  0  0  0  0  0  0  0  0  0  0  0  0
    5.6135   -9.0966   20.2345 He  0  0  0  0  0  0  0  0  0  0  0  0
    6.8275   -8.9152   17.6594 He  0  0  0  0  0  0  0  0  0  0  0  0
    4.0827   -8.5593   25.0985 He  0  0  0  0  0  0  0  0  0  0  0  0
    2.5540   -6.0900   27.3953 He  0  0  0  0  0  0  0  0  0  0  0  0
    0.5350   -5.7776   26.6769 He  0  0  0  0  0  0  0  0  0  0  0  0
    5.3694   -9.1456   22.0620 He  0  0  0  0  0  0  0  0  0  0  0  0
  1  2  3  0
  1  4  1  0
  1  6  4  0
  1  7  4  0
  1 11  1  0
  1 12  4  0
  1 13  4  0
  1 16  1  0
  2  4  3  0
  2  5  2  0
  2  8  2  0
  2 10  3  0
  2 14  1  0
  2 17  1  0
  3  4  2  0
  3  8  2  0
  3 10  1  0
  3 11  4  0
  3 13  1  0
  4  5  3  0
  4  6  3  0
  4  7  1  0
  4 11  3  0
  4 16  4  0
  5  6  2  0
  5  7  1  0
  5 10  1  0
  5 11  3  0
  5 15  3  0
  6  7  1  0
  6  8  1  0
  6 11  3  0
  6 13  3  0
  6 15  3  0
  7  9  4  0
  7 10  4  0
  7 12  3  0
  8 12  2  0
  9 12  2  0
  9 13  2  0
  9 14  2  0
  9 17  3  0
 10 11  3  0
 10 12  3  0
 10 14  2  0
 10 15  2  0
 10 16  2  0
 11 14  3  0
 11 15  4  0
 12 14  1  0
 12 16  1  0
 13 15  3  0
 13 16  3  0
 14 17  1  0
 16 17  1  0
M  END
$$$$

 Created by Python create_sdf_string function

 28  5  0  0  0  0  0  0  0  0999 V2000
    1.9294  -11.2188   17.6560 C   0  0  0  0  0  0  0  0  0  0  0  0
    5.6866   -8.8387   18.0528 C   0  0  0  0  0  0  0  0  0  0  0  0
    5.8394   -9.7015   16.8439 C   0  0  0  0  0  0  0  0  0  0  0  0
    5.1245   -7.8684   24.8198 C   0  0  0  0  0  0  0  0  0  0  0  0
    6.9435   -7.5785   18.1905 C   0  0  0  0  0  0  0  0  0  0  0  0
    1.0407   -5.8978   27.1665 C   0  0  0  0  0  0  0  0  0  0  0  0
    4.1542  -10.2247   18.0006 C   0  0  0  0  0  0  0  0  0  0  0  0
    3.6522  -10.2772   17.1773 C   0  0  0  0  0  0  0  0  0  0  0  0
    1.9502   -7.0734   27.0214 C   0  0  0  0  0  0  0  0  0  0  0  0
    1.6209  -10.1891   16.1557 C   0  0  0  0  0  0  0  0  0  0  0  0
    2.7706  -10.2383   17.9243 C   0  0  0  0  0  0  0  0  0  0  0  0
    5.9398   -8.5274   19.2684 C   0  0  0  0  0  0  0  0  0  0  0  0
    6.4794   -8.4762   17.5313 C   0  0  0  0  0  0  0  0  0  0  0  0
    3.9260   -7.6066   25.9693 C   0  0  0  0  0  0  0  0  0  0  0  0
    2.4804  -10.7330   17.4208 C   0  0  0  0  0  0  0  0  0  0  0  0
    5.2791   -7.9206   24.3120 C   0  0  0  0  0  0  0  0  0  0  0  0
    2.4449   -6.2411   27.4005 C   0  0  0  0  0  0  0  0  0  0  0  0
    3.2201   -7.5196   27.3047 C   0  0  0  0  0  0  0  0  0  0  0  0
    5.1495   -7.3557   27.7504 C   0  0  0  0  0  0  0  0  0  0  0  0
    5.2676   -7.9836   24.8429 C   0  0  0  0  0  0  0  0  0  0  0  0
    0.7606   -5.7642   26.9842 C   0  0  0  0  0  0  0  0  0  0  0  0
    5.5233   -8.0606   26.9832 C   0  0  0  0  0  0  0  0  0  0  0  0
    1.1787  -10.8935   17.1290 C   0  0  0  0  0  0  0  0  0  0  0  0
    6.9047   -7.8931   17.2289 C   0  0  0  0  0  0  0  0  0  0  0  0
    1.6565   -5.2981   27.5648 C   0  0  0  0  0  0  0  0  0  0  0  0
    5.5598   -8.2422   22.0530 C   0  0  0  0  0  0  0  0  0  0  0  0
    5.6644  -10.0895   16.2436 C   0  0  0  0  0  0  0  0  0  0  0  0
    5.9245   -7.6896   26.0683 C   0  0  0  0  0  0  0  0  0  0  0  0
  1 23  4  0
  3 27  4  0
  5 24  4  0
  6 21  1  0
 10 23  4  0
M  END
$$$$

 Created by Python create_sdf_string function

 28 43  0  0  0  0  0  0  0  0999 V2000
    5.6977   -8.7447   17.1690 C   0  0  0  0  0  0  0  0  0  0  0  0
    6.1129   -9.6476   16.2902 C   0  0  0  0  0  0  0  0  0  0  0  0
    0.8985   -5.4045   28.1903 C   0  0  0  0  0  0  0  0  0  0  0  0
    4.3316  -10.5098   16.5846 I   0  0  0  0  0  0  0  0  0  0  0  0
    1.2086   -8.1616   26.3746 S   0  0  0  0  0  0  0  0  0  0  0  0
    2.5705  -10.7295   16.8294 N   0  0  0  0  0  0  0  0  0  0  0  0
    4.1351   -7.9522   22.8514 P   0  0  0  0  0  0  0  0  0  0  0  0
    1.7639   -7.9439   26.1752 Cl  0  0  0  0  0  0  0  0  0  0  0  0
    4.6331   -6.0689   27.7903 P   0  0  0  0  0  0  0  0  0  0  0  0
   -1.0318   -4.4588   25.8036 C   0  0  0  0  0  0  0  0  0  0  0  0
    6.2666   -9.8186   27.6215 Cl  0  0  0  0  0  0  0  0  0  0  0  0
    0.9849  -10.5856   17.1595 C   0  0  0  0  0  0  0  0  0  0  0  0
    6.6612   -8.4806   17.3849 C   0  0  0  0  0  0  0  0  0  0  0  0
    1.4247   -2.4059   26.4684 C   0  0  0  0  0  0  0  0  0  0  0  0
    4.9402   -8.0255   21.9553 C   0  0  0  0  0  0  0  0  0  0  0  0
    6.4424  -12.6638   16.1338 F   0  0  0  0  0  0  0  0  0  0  0  0
    4.1924   -6.7610   26.7924 B   0  0  0  0  0  0  0  0  0  0  0  0
    2.0407  -11.1569   17.9451 He  0  0  0  0  0  0  0  0  0  0  0  0
    4.5455   -7.9541   24.4545 He  0  0  0  0  0  0  0  0  0  0  0  0
    6.7504   -7.7615   18.3194 He  0  0  0  0  0  0  0  0  0  0  0  0
    4.6014  -10.3654   17.5685 He  0  0  0  0  0  0  0  0  0  0  0  0
    1.7234  -10.2472   15.4710 He  0  0  0  0  0  0  0  0  0  0  0  0
    6.6762   -8.5455   20.6798 He  0  0  0  0  0  0  0  0  0  0  0  0
    5.2109   -9.8139   16.7821 He  0  0  0  0  0  0  0  0  0  0  0  0
    4.2456   -7.9259   24.5990 He  0  0  0  0  0  0  0  0  0  0  0  0
    2.2506  -10.5849   17.3679 He  0  0  0  0  0  0  0  0  0  0  0  0
    2.5872   -8.9853   28.3247 He  0  0  0  0  0  0  0  0  0  0  0  0
    3.0025   -6.7472   25.1628 He  0  0  0  0  0  0  0  0  0  0  0  0
  1  9  2  0
  1 10  2  0
  2  5  2  0
  2  9  1  0
  2 15  4  0
  3  4  1  0
  3  5  2  0
  3  9  3  0
  3 11  1  0
  3 12  2  0
  3 13  4  0
  3 14  4  0
  4 15  3  0
  4 16  4  0
  5  7  4  0
  5 10  3  0
  5 14  4  0
  5 17  2  0
  6  7  1  0
  6  8  1  0
  6 14  3  0
  6 15  4  0
  6 17  1  0
  7 17  3  0
  8 12  2  0
  8 13  1  0
  9 10  3  0
  9 11  4  0
  9 13  3  0
  9 14  4  0
  9 15  1  0
  9 17  2  0
 10 11  3  0
 10 12  2  0
 10 17  4  0
 11 12  4  0
 11 16  2  0
 12 14  3  0
 12 15  3  0
 12 16  1  0
 13 16  4  0
 14 15  2  0
 15 16  3  0
M  END
$$$$

 Created by Python create_sdf_string function

 28 12  0  0  0  0  0  0  0  0999 V2000
    1.7634  -10.5836   17.8412 C   0  0  0  0  0  0  0  0  0  0  0  0
    5.7845   -8.8180   17.7064 C   0  0  0  0  0  0  0  0  0  0  0  0
    6.0605  -10.1295   16.7021 C   0  0  0  0  0  0  0  0  0  0  0  0
    4.8992   -7.6966   25.1221 C   0  0  0  0  0  0  0  0  0  0  0  0
    6.6227   -7.9948   18.1748 C   0  0  0  0  0  0  0  0  0  0  0  0
    1.0843   -5.3898   27.5053 C   0  0  0  0  0  0  0  0  0  0  0  0
    4.4693  -10.2117   17.4599 C   0  0  0  0  0  0  0  0  0  0  0  0
    4.2774  -10.7129   16.5679 C   0  0  0  0  0  0  0  0  0  0  0  0
    1.6169   -7.0726   26.9322 C   0  0  0  0  0  0  0  0  0  0  0  0
    1.9691  -10.3966   16.0602 C   0  0  0  0  0  0  0  0  0  0  0  0
    2.9478  -10.5191   16.6861 C   0  0  0  0  0  0  0  0  0  0  0  0
    6.0257   -8.2888   19.7414 C   0  0  0  0  0  0  0  0  0  0  0  0
    5.6667   -9.7825   17.0579 C   0  0  0  0  0  0  0  0  0  0  0  0
    4.6875   -7.6030   25.2546 C   0  0  0  0  0  0  0  0  0  0  0  0
    2.2663  -10.5808   17.7629 C   0  0  0  0  0  0  0  0  0  0  0  0
    5.0821   -7.8145   24.0281 C   0  0  0  0  0  0  0  0  0  0  0  0
    2.0444   -7.0644   26.7010 C   0  0  0  0  0  0  0  0  0  0  0  0
    2.9582   -8.2501   27.5888 C   0  0  0  0  0  0  0  0  0  0  0  0
    4.0629   -6.6298   27.3273 C   0  0  0  0  0  0  0  0  0  0  0  0
    2.7518   -6.4820   26.2194 C   0  0  0  0  0  0  0  0  0  0  0  0
    0.1004   -5.0799   26.7106 C   0  0  0  0  0  0  0  0  0  0  0  0
    5.5021   -8.3414   27.0957 C   0  0  0  0  0  0  0  0  0  0  0  0
    1.1630  -10.3958   17.0714 C   0  0  0  0  0  0  0  0  0  0  0  0
    6.6349   -8.2871   17.6908 C   0  0  0  0  0  0  0  0  0  0  0  0
    1.3363   -4.2141   26.9783 C   0  0  0  0  0  0  0  0  0  0  0  0
    5.4530   -8.0060   22.0744 C   0  0  0  0  0  0  0  0  0  0  0  0
    5.9747  -11.2096   15.9213 C   0  0  0  0  0  0  0  0  0  0  0  0
    4.0057   -7.0462   26.8346 C   0  0  0  0  0  0  0  0  0  0  0  0
  1 15  4  0
  1 23  4  0
  2 13  4  0
  3 13  4  0
  4 14  1  0
  5 24  4  0
  6 25  1  0
  7  8  4  0
  9 17  1  0
 10 11  4  0
 10 23  4  0
 21 25  1  0
M  END
$$$$

 Created by Python create_sdf_string function

 28 15  0  0  0  0  0  0  0  0999 V2000
    1.7274  -10.0678   18.3064 C   0  0  0  0  0  0  0  0  0  0  0  0
    6.7374   -8.2551   17.6252 C   0  0  0  0  0  0  0  0  0  0  0  0
    4.1847  -10.8219   18.5853 S   0  0  0  0  0  0  0  0  0  0  0  0
    4.3675  -10.2868   16.3821 C   0  0  0  0  0  0  0  0  0  0  0  0
    2.6453  -10.9312   17.6629 C   0  0  0  0  0  0  0  0  0  0  0  0
    4.7148   -6.4487   23.7972 C   0  0  0  0  0  0  0  0  0  0  0  0
    2.3110   -7.5327   25.3528 F   0  0  0  0  0  0  0  0  0  0  0  0
    4.5361   -5.6511   26.8108 S   0  0  0  0  0  0  0  0  0  0  0  0
    1.2071   -9.6847   17.1026 Cl  0  0  0  0  0  0  0  0  0  0  0  0
    6.3574   -7.7390   17.9241 C   0  0  0  0  0  0  0  0  0  0  0  0
    6.3180   -8.7540   22.6689 O   0  0  0  0  0  0  0  0  0  0  0  0
    5.2618   -8.4615   17.9417 He  0  0  0  0  0  0  0  0  0  0  0  0
    6.4884  -10.5799   17.0024 He  0  0  0  0  0  0  0  0  0  0  0  0
    6.3914   -6.7703   26.6350 He  0  0  0  0  0  0  0  0  0  0  0  0
    0.6087   -5.7379   26.7294 He  0  0  0  0  0  0  0  0  0  0  0  0
    1.0638   -5.2546   26.9882 He  0  0  0  0  0  0  0  0  0  0  0  0
    1.8379  -10.8901   14.6725 He  0  0  0  0  0  0  0  0  0  0  0  0
    3.3978   -9.0884   17.4430 He  0  0  0  0  0  0  0  0  0  0  0  0
    6.0209   -7.9521   17.4778 He  0  0  0  0  0  0  0  0  0  0  0  0
    5.3161   -9.2203   17.1814 He  0  0  0  0  0  0  0  0  0  0  0  0
    3.9610   -6.8189   26.6401 He  0  0  0  0  0  0  0  0  0  0  0  0
    4.0980   -8.5687   28.1053 He  0  0  0  0  0  0  0  0  0  0  0  0
    3.6338   -4.8144   26.6379 He  0  0  0  0  0  0  0  0  0  0  0  0
   -0.0985   -4.6452   25.8384 He  0  0  0  0  0  0  0  0  0  0  0  0
    6.7087   -9.2155   25.8956 He  0  0  0  0  0  0  0  0  0  0  0  0
   -0.3225   -3.9547   26.8946 He  0  0  0  0  0  0  0  0  0  0  0  0
    6.0350  -10.5599   16.2746 He  0  0  0  0  0  0  0  0  0  0  0  0
    3.9137   -7.0305   26.3761 He  0  0  0  0  0  0  0  0  0  0  0  0
  1  5  4  0
  1  7  2  0
  1  9  4  0
  2  8  1  0
  2 10  4  0
  3  9  2  0
  3 10  4  0
  3 11  3  0
  4 10  1  0
  5  7  1  0
  6 11  2  0
  7  8  2  0
  7  9  1  0
  7 11  4  0
 10 11  3  0
M  END
$$$$

 Created by Python create_sdf_string function

 28  8  0  0  0  0  0  0  0  0999 V2000
    1.4134  -10.1913   17.8544 C   0  0  0  0  0  0  0  0  0  0  0  0
    5.6872   -8.6538   17.9258 C   0  0  0  0  0  0  0  0  0  0  0  0
    6.3792   -9.7994   16.8318 C   0  0  0  0  0  0  0  0  0  0  0  0
    5.8239   -7.1857   26.7893 C   0  0  0  0  0  0  0  0  0  0  0  0
    7.1331   -7.9732   17.8094 C   0  0  0  0  0  0  0  0  0  0  0  0
    0.8362   -5.7318   27.0403 C   0  0  0  0  0  0  0  0  0  0  0  0
    4.1130  -10.2293   18.0820 C   0  0  0  0  0  0  0  0  0  0  0  0
    4.3479  -10.4473   16.3802 C   0  0  0  0  0  0  0  0  0  0  0  0
    0.9560   -5.3187   27.1631 C   0  0  0  0  0  0  0  0  0  0  0  0
    2.1653  -10.0958   15.8229 C   0  0  0  0  0  0  0  0  0  0  0  0
    3.2686   -9.6883   16.8964 C   0  0  0  0  0  0  0  0  0  0  0  0
    6.1587   -7.9605   17.8469 C   0  0  0  0  0  0  0  0  0  0  0  0
    5.2318   -9.4240   17.2713 C   0  0  0  0  0  0  0  0  0  0  0  0
    3.8888   -6.7258   26.8632 C   0  0  0  0  0  0  0  0  0  0  0  0
    2.5229  -10.7016   17.8121 C   0  0  0  0  0  0  0  0  0  0  0  0
    4.8984   -7.5305   25.2572 C   0  0  0  0  0  0  0  0  0  0  0  0
    2.3798   -6.8395   26.3338 C   0  0  0  0  0  0  0  0  0  0  0  0
    4.5463   -8.1885   27.2464 C   0  0  0  0  0  0  0  0  0  0  0  0
    2.7112   -5.0325   27.1414 C   0  0  0  0  0  0  0  0  0  0  0  0
    4.1440   -6.0182   27.0760 C   0  0  0  0  0  0  0  0  0  0  0  0
    0.1421   -4.8452   26.7904 C   0  0  0  0  0  0  0  0  0  0  0  0
    5.7779   -8.0418   26.1564 C   0  0  0  0  0  0  0  0  0  0  0  0
    1.1790   -9.7579   16.8068 C   0  0  0  0  0  0  0  0  0  0  0  0
    6.6268   -7.8452   18.1698 C   0  0  0  0  0  0  0  0  0  0  0  0
    0.1254   -4.2848   27.1733 C   0  0  0  0  0  0  0  0  0  0  0  0
    5.3435   -7.8255   24.1568 O   0  0  0  0  0  0  0  0  0  0  0  0
    6.0697  -10.2825   16.5165 C   0  0  0  0  0  0  0  0  0  0  0  0
    3.7145   -6.8465   26.6308 C   0  0  0  0  0  0  0  0  0  0  0  0
  1 15  4  0
  1 23  4  0
  2 12  4  0
  3 27  4  0
  5 24  4  0
 10 23  4  0
 16 26  1  0
 21 25  1  0
M  END
$$$$

 Created by Python create_sdf_string function

 28 25  0  0  0  0  0  0  0  0999 V2000
    1.5963  -10.1085   17.8459 O   0  0  0  0  0  0  0  0  0  0  0  0
    6.0496  -10.1336   17.1495 C   0  0  0  0  0  0  0  0  0  0  0  0
    4.9857  -10.3787   18.3844 B   0  0  0  0  0  0  0  0  0  0  0  0
    4.0353  -10.4012   16.1501 O   0  0  0  0  0  0  0  0  0  0  0  0
    6.4794   -8.4986   18.2551 Cl  0  0  0  0  0  0  0  0  0  0  0  0
    3.8211   -9.0723   17.6955 C   0  0  0  0  0  0  0  0  0  0  0  0
    3.9984   -6.2664   28.1627 F   0  0  0  0  0  0  0  0  0  0  0  0
    2.5616  -11.1321   16.7280 C   0  0  0  0  0  0  0  0  0  0  0  0
    0.6849   -4.6262   27.0209 B   0  0  0  0  0  0  0  0  0  0  0  0
    1.7754   -9.6045   16.6177 C   0  0  0  0  0  0  0  0  0  0  0  0
    6.6317   -7.6147   18.5095 N   0  0  0  0  0  0  0  0  0  0  0  0
    5.6156  -10.7350   24.8097 C   0  0  0  0  0  0  0  0  0  0  0  0
    4.9728  -10.2159   17.7021 He  0  0  0  0  0  0  0  0  0  0  0  0
    4.7539   -8.0329   25.1202 He  0  0  0  0  0  0  0  0  0  0  0  0
    7.2048   -8.2632   17.9014 He  0  0  0  0  0  0  0  0  0  0  0  0
   -0.6659   -6.3736   27.5583 He  0  0  0  0  0  0  0  0  0  0  0  0
    0.2135   -4.9828   28.7124 He  0  0  0  0  0  0  0  0  0  0  0  0
    2.2788   -9.7931   15.3508 He  0  0  0  0  0  0  0  0  0  0  0  0
    1.0157  -10.3705   15.7874 He  0  0  0  0  0  0  0  0  0  0  0  0
    4.8633   -8.4532   25.4312 He  0  0  0  0  0  0  0  0  0  0  0  0
    2.1387   -6.3062   25.5294 He  0  0  0  0  0  0  0  0  0  0  0  0
    3.9099   -7.6623   27.4869 He  0  0  0  0  0  0  0  0  0  0  0  0
    1.8135   -5.2423   28.2340 He  0  0  0  0  0  0  0  0  0  0  0  0
    2.7690   -5.1138   25.6686 He  0  0  0  0  0  0  0  0  0  0  0  0
    3.8685   -7.2240   27.5015 He  0  0  0  0  0  0  0  0  0  0  0  0
    0.1130   -3.2474   26.8205 He  0  0  0  0  0  0  0  0  0  0  0  0
    5.7118  -10.9335   16.3205 He  0  0  0  0  0  0  0  0  0  0  0  0
    3.5466   -6.0384   26.3695 He  0  0  0  0  0  0  0  0  0  0  0  0
  1  4  1  0
  1  6  1  0
  1  7  2  0
  1  8  4  0
  1 10  4  0
  2  7  3  0
  2 10  2  0
  2 12  2  0
  3  4  1  0
  3  6  1  0
  3  7  2  0
  3 10  1  0
  3 12  1  0
  4  7  4  0
  4 11  3  0
  5  6  3  0
  5  9  1  0
  5 10  2  0
  5 12  4  0
  6  9  4  0
  8  9  4  0
  8 10  2  0
  9 10  4  0
  9 12  4  0
 11 12  3  0
M  END
$$$$

 Created by Python create_sdf_string function

 28  6  0  0  0  0  0  0  0  0999 V2000
    1.3937  -10.0885   17.3102 C   0  0  0  0  0  0  0  0  0  0  0  0
    5.0325   -9.6904   17.4908 C   0  0  0  0  0  0  0  0  0  0  0  0
    6.1401   -9.7658   16.9611 C   0  0  0  0  0  0  0  0  0  0  0  0
    4.6305   -7.5007   25.7438 C   0  0  0  0  0  0  0  0  0  0  0  0
    7.0262   -8.2376   17.9795 C   0  0  0  0  0  0  0  0  0  0  0  0
   -0.1833   -5.5554   27.6755 C   0  0  0  0  0  0  0  0  0  0  0  0
    5.0950   -9.4816   17.8745 C   0  0  0  0  0  0  0  0  0  0  0  0
    4.1186  -10.6289   16.3176 C   0  0  0  0  0  0  0  0  0  0  0  0
    0.1535   -4.9650   28.3233 C   0  0  0  0  0  0  0  0  0  0  0  0
    2.2711  -10.0027   15.6901 C   0  0  0  0  0  0  0  0  0  0  0  0
    1.0613  -10.1034   15.8659 C   0  0  0  0  0  0  0  0  0  0  0  0
    6.4583   -8.3904   18.0616 C   0  0  0  0  0  0  0  0  0  0  0  0
    3.6077   -9.7685   17.2138 C   0  0  0  0  0  0  0  0  0  0  0  0
    3.5221   -6.3292   27.9567 C   0  0  0  0  0  0  0  0  0  0  0  0
    2.5594  -10.6795   16.7719 C   0  0  0  0  0  0  0  0  0  0  0  0
    4.9895   -7.8124   26.1286 C   0  0  0  0  0  0  0  0  0  0  0  0
    2.1531   -6.1014   26.5756 C   0  0  0  0  0  0  0  0  0  0  0  0
    4.0894   -7.5662   27.2945 C   0  0  0  0  0  0  0  0  0  0  0  0
    1.5318   -5.3438   28.0155 C   0  0  0  0  0  0  0  0  0  0  0  0
    2.1573   -5.3421   26.5872 C   0  0  0  0  0  0  0  0  0  0  0  0
    0.4923   -4.6267   27.1747 C   0  0  0  0  0  0  0  0  0  0  0  0
    3.7899   -7.1282   27.3524 C   0  0  0  0  0  0  0  0  0  0  0  0
    1.4249   -9.6481   16.5608 C   0  0  0  0  0  0  0  0  0  0  0  0
    6.5247   -8.1599   18.2915 C   0  0  0  0  0  0  0  0  0  0  0  0
    0.1226   -3.8680   27.1295 C   0  0  0  0  0  0  0  0  0  0  0  0
    5.2142   -8.0182   25.5634 C   0  0  0  0  0  0  0  0  0  0  0  0
    5.6133  -10.7216   16.4240 C   0  0  0  0  0  0  0  0  0  0  0  0
    3.3009   -6.4359   26.8153 C   0  0  0  0  0  0  0  0  0  0  0  0
  1 23  4  0
  5 12  4  0
  5 24  4  0
 12 24  4  0
 16 26  1  0
 21 25  1  0
M  END
$$$$

 Created by Python create_sdf_string function

 28 53  0  0  0  0  0  0  0  0999 V2000
    5.7026   -9.9334   17.5212 C   0  0  0  0  0  0  0  0  0  0  0  0
    6.4401   -9.7459   17.3355 C   0  0  0  0  0  0  0  0  0  0  0  0
    6.5358   -7.3329   27.0860 S   0  0  0  0  0  0  0  0  0  0  0  0
    6.3373   -7.3292   17.7918 I   0  0  0  0  0  0  0  0  0  0  0  0
    0.4500   -5.4394   27.1828 S   0  0  0  0  0  0  0  0  0  0  0  0
    4.6857  -10.5186   15.2715 C   0  0  0  0  0  0  0  0  0  0  0  0
    0.0045   -5.1109   27.2218 Se  0  0  0  0  0  0  0  0  0  0  0  0
    2.5153  -10.9961   16.4599 C   0  0  0  0  0  0  0  0  0  0  0  0
    3.8441   -9.6003   18.0350 C   0  0  0  0  0  0  0  0  0  0  0  0
    5.4559   -8.3259   25.6839 P   0  0  0  0  0  0  0  0  0  0  0  0
    2.3654   -6.8763   27.2579 Cl  0  0  0  0  0  0  0  0  0  0  0  0
    4.7783   -6.8330   26.2585 C   0  0  0  0  0  0  0  0  0  0  0  0
    4.4487   -7.4115   26.9440 F   0  0  0  0  0  0  0  0  0  0  0  0
    0.8903   -9.9436   16.7408 C   0  0  0  0  0  0  0  0  0  0  0  0
    6.5920   -7.9604   17.9952 C   0  0  0  0  0  0  0  0  0  0  0  0
    5.6587   -7.6250   26.2814 Cl  0  0  0  0  0  0  0  0  0  0  0  0
    5.3352  -10.0533   16.5095 N   0  0  0  0  0  0  0  0  0  0  0  0
    2.0546   -9.3876   17.7382 He  0  0  0  0  0  0  0  0  0  0  0  0
    5.7260  -10.7623   19.3120 He  0  0  0  0  0  0  0  0  0  0  0  0
    3.2082  -10.0109   15.8431 He  0  0  0  0  0  0  0  0  0  0  0  0
    8.5601   -7.7381   18.2411 He  0  0  0  0  0  0  0  0  0  0  0  0
    3.5887   -4.8467   29.5480 He  0  0  0  0  0  0  0  0  0  0  0  0
    2.2891  -11.0565   16.8935 He  0  0  0  0  0  0  0  0  0  0  0  0
    1.2991   -4.4688   28.9042 He  0  0  0  0  0  0  0  0  0  0  0  0
    1.7711   -5.2221   26.5625 He  0  0  0  0  0  0  0  0  0  0  0  0
   -0.7589   -4.0811   26.7714 He  0  0  0  0  0  0  0  0  0  0  0  0
    1.7106   -3.4065   26.9174 He  0  0  0  0  0  0  0  0  0  0  0  0
    3.3734   -5.7975   24.7628 He  0  0  0  0  0  0  0  0  0  0  0  0
  1  3  4  0
  1  5  3  0
  1 10  4  0
  1 13  1  0
  1 15  4  0
  1 17  3  0
  2  3  3  0
  2  7  1  0
  2 10  2  0
  2 14  4  0
  2 17  3  0
  3  6  2  0
  3  9  4  0
  3 10  3  0
  3 13  2  0
  3 14  1  0
  4  7  4  0
  4  9  2  0
  4 11  4  0
  4 12  4  0
  4 15  4  0
  5  8  1  0
  5 11  1  0
  5 14  2  0
  5 17  1  0
  6  9  1  0
  6 10  4  0
  6 11  1  0
  6 13  4  0
  6 15  4  0
  6 17  4  0
  7  8  3  0
  7 11  3  0
  7 12  2  0
  7 13  1  0
  7 16  3  0
  8 10  4  0
  8 15  4  0
  9 12  3  0
  9 16  2  0
 10 13  1  0
 10 15  4  0
 10 16  4  0
 11 12  1  0
 11 14  1  0
 11 15  3  0
 12 13  4  0
 12 14  2  0
 12 17  4  0
 13 14  2  0
 13 17  1  0
 14 15  3  0
 14 17  2  0
M  END
$$$$

 Created by Python create_sdf_string function

 28 14  0  0  0  0  0  0  0  0999 V2000
    1.7505   -9.9515   17.2188 C   0  0  0  0  0  0  0  0  0  0  0  0
    6.1311   -9.1725   17.3349 C   0  0  0  0  0  0  0  0  0  0  0  0
    6.3121   -9.3100   17.1899 C   0  0  0  0  0  0  0  0  0  0  0  0
    5.9648   -7.3053   27.1116 C   0  0  0  0  0  0  0  0  0  0  0  0
    6.7014   -7.6690   18.2565 C   0  0  0  0  0  0  0  0  0  0  0  0
    0.5277   -5.5616   27.1424 C   0  0  0  0  0  0  0  0  0  0  0  0
    5.7080   -8.9611   18.3735 C   0  0  0  0  0  0  0  0  0  0  0  0
    4.7820  -10.7915   15.8987 C   0  0  0  0  0  0  0  0  0  0  0  0
   -0.2840   -5.0101   27.1952 C   0  0  0  0  0  0  0  0  0  0  0  0
    3.0745  -10.4141   16.2591 C   0  0  0  0  0  0  0  0  0  0  0  0
    2.3849  -10.6780   16.3613 C   0  0  0  0  0  0  0  0  0  0  0  0
    7.9719   -7.6985   17.8201 C   0  0  0  0  0  0  0  0  0  0  0  0
    3.8289   -9.9906   17.5122 C   0  0  0  0  0  0  0  0  0  0  0  0
    3.2140   -5.1459   28.6267 C   0  0  0  0  0  0  0  0  0  0  0  0
    2.0846  -10.7323   16.8120 C   0  0  0  0  0  0  0  0  0  0  0  0
    5.3163   -7.8014   25.9925 C   0  0  0  0  0  0  0  0  0  0  0  0
    2.4363   -6.4181   27.2248 C   0  0  0  0  0  0  0  0  0  0  0  0
    4.3447   -6.9298   27.0069 C   0  0  0  0  0  0  0  0  0  0  0  0
    1.4240   -4.6273   28.2908 C   0  0  0  0  0  0  0  0  0  0  0  0
    1.8691   -5.2601   26.9352 C   0  0  0  0  0  0  0  0  0  0  0  0
   -0.4131   -4.2012   26.9625 C   0  0  0  0  0  0  0  0  0  0  0  0
    4.5061   -6.9979   27.0286 C   0  0  0  0  0  0  0  0  0  0  0  0
    1.0240  -10.0524   16.7053 C   0  0  0  0  0  0  0  0  0  0  0  0
    7.1751   -7.7341   17.8295 C   0  0  0  0  0  0  0  0  0  0  0  0
    1.1631   -3.8321   27.1064 C   0  0  0  0  0  0  0  0  0  0  0  0
    5.5947   -7.5982   26.5271 C   0  0  0  0  0  0  0  0  0  0  0  0
    5.4165  -10.4258   16.3225 C   0  0  0  0  0  0  0  0  0  0  0  0
    3.6247   -6.9736   26.0510 C   0  0  0  0  0  0  0  0  0  0  0  0
  1 23  4  0
  2  3  4  0
  4 26  4  0
  5  7  4  0
  5 24  4  0
  6  9  4  0
  8 27  4  0
  9 21  4  0
 10 11  4  0
 12 24  4  0
 16 26  4  0
 18 22  4  0
 20 25  4  0
 21 25  4  0
M  END
$$$$

 Created by Python create_sdf_string function

 28 40  0  0  0  0  0  0  0  0999 V2000
    1.1244  -10.1024   17.2729 C   0  0  0  0  0  0  0  0  0  0  0  0
    6.5575   -7.3991   18.8705 C   0  0  0  0  0  0  0  0  0  0  0  0
   -0.5211   -6.2257   27.0076 N   0  0  0  0  0  0  0  0  0  0  0  0
    4.8665  -11.0924   15.8974 C   0  0  0  0  0  0  0  0  0  0  0  0
    1.0789   -8.9069   17.9364 O   0  0  0  0  0  0  0  0  0  0  0  0
    6.6159   -7.8124   16.4327 S   0  0  0  0  0  0  0  0  0  0  0  0
    2.0639  -10.5005   16.7648 C   0  0  0  0  0  0  0  0  0  0  0  0
    1.7295   -4.3471   26.9726 C   0  0  0  0  0  0  0  0  0  0  0  0
    0.7487   -4.8370   25.9264 F   0  0  0  0  0  0  0  0  0  0  0  0
    4.4528   -7.1535   26.7405 N   0  0  0  0  0  0  0  0  0  0  0  0
    0.5315  -10.1502   17.2067 F   0  0  0  0  0  0  0  0  0  0  0  0
    7.3321   -7.5242   17.5924 C   0  0  0  0  0  0  0  0  0  0  0  0
    1.8873   -3.9396   26.4764 C   0  0  0  0  0  0  0  0  0  0  0  0
    6.9295   -5.4017   24.8963 N   0  0  0  0  0  0  0  0  0  0  0  0
    2.9507   -6.6883   24.1848 F   0  0  0  0  0  0  0  0  0  0  0  0
    6.1734   -8.0293   18.5633 He  0  0  0  0  0  0  0  0  0  0  0  0
    6.6843   -9.7262   16.9669 He  0  0  0  0  0  0  0  0  0  0  0  0
    5.7385   -6.4554   26.8330 He  0  0  0  0  0  0  0  0  0  0  0  0
    6.6720   -9.2989   20.0081 He  0  0  0  0  0  0  0  0  0  0  0  0
   -1.4827   -6.5989   27.8558 He  0  0  0  0  0  0  0  0  0  0  0  0
    3.0809  -11.0464   15.1644 He  0  0  0  0  0  0  0  0  0  0  0  0
    4.3801   -9.0165   18.4458 He  0  0  0  0  0  0  0  0  0  0  0  0
    2.4221   -5.1288   29.1196 He  0  0  0  0  0  0  0  0  0  0  0  0
    7.1178   -6.2144   27.0576 He  0  0  0  0  0  0  0  0  0  0  0  0
    3.3768   -7.9615   27.0788 He  0  0  0  0  0  0  0  0  0  0  0  0
    0.3233   -6.2433   25.8685 He  0  0  0  0  0  0  0  0  0  0  0  0
   -1.5601   -5.9043   27.1113 He  0  0  0  0  0  0  0  0  0  0  0  0
    4.7359  -10.9774   15.0681 He  0  0  0  0  0  0  0  0  0  0  0  0
  1  2  4  0
  1  7  1  0
  1 12  4  0
  1 14  1  0
  1 15  2  0
  2  6  4  0
  2  8  1  0
  2 11  2  0
  2 12  4  0
  2 13  4  0
  2 14  4  0
  3  4  4  0
  3  7  1  0
  3  9  3  0
  3 12  3  0
  3 13  1  0
  3 14  4  0
  3 15  1  0
  4  6  3  0
  4  7  3  0
  4 10  4  0
  5 11  2  0
  5 14  1  0
  6  8  2  0
  6 11  2  0
  6 13  4  0
  7  8  3  0
  7 10  4  0
  8 14  4  0
  8 15  2  0
  9 10  4  0
  9 13  1  0
  9 14  2  0
  9 15  3  0
 10 13  4  0
 12 13  2  0
 12 14  1  0
 13 14  1  0
 13 15  3  0
 14 15  1  0
M  END
$$$$

 Created by Python create_sdf_string function

 28 10  0  0  0  0  0  0  0  0999 V2000
    1.4353   -9.9615   16.9574 C   0  0  0  0  0  0  0  0  0  0  0  0
    5.9445   -8.4864   18.0484 C   0  0  0  0  0  0  0  0  0  0  0  0
    5.9422   -9.3289   16.9532 C   0  0  0  0  0  0  0  0  0  0  0  0
    5.3597   -6.4013   27.2238 C   0  0  0  0  0  0  0  0  0  0  0  0
    6.9028   -7.6629   18.1612 C   0  0  0  0  0  0  0  0  0  0  0  0
   -0.3711   -5.7433   27.2930 C   0  0  0  0  0  0  0  0  0  0  0  0
    6.0708   -8.3808   18.6696 C   0  0  0  0  0  0  0  0  0  0  0  0
    4.6582  -10.8511   16.1138 C   0  0  0  0  0  0  0  0  0  0  0  0
   -1.0024   -5.8151   27.8930 C   0  0  0  0  0  0  0  0  0  0  0  0
    3.1420  -10.8742   15.9841 C   0  0  0  0  0  0  0  0  0  0  0  0
    1.3515   -9.6846   17.2498 C   0  0  0  0  0  0  0  0  0  0  0  0
    6.7006   -8.4648   16.6231 C   0  0  0  0  0  0  0  0  0  0  0  0
    4.2075   -9.8369   17.5127 C   0  0  0  0  0  0  0  0  0  0  0  0
    2.5875   -5.4464   28.1409 C   0  0  0  0  0  0  0  0  0  0  0  0
    2.5442  -10.3189   16.7147 C   0  0  0  0  0  0  0  0  0  0  0  0
    6.1124   -6.2300   27.3153 C   0  0  0  0  0  0  0  0  0  0  0  0
    1.9455   -5.0776   27.1123 C   0  0  0  0  0  0  0  0  0  0  0  0
    3.2904   -7.1470   26.8869 C   0  0  0  0  0  0  0  0  0  0  0  0
    0.9363   -5.0714   26.8600 C   0  0  0  0  0  0  0  0  0  0  0  0
    0.5380   -6.0407   26.9009 C   0  0  0  0  0  0  0  0  0  0  0  0
   -1.1434   -5.4330   27.2190 C   0  0  0  0  0  0  0  0  0  0  0  0
    4.4403   -6.6739   27.0310 C   0  0  0  0  0  0  0  0  0  0  0  0
    1.0036  -10.0165   16.8346 C   0  0  0  0  0  0  0  0  0  0  0  0
    7.3959   -7.6170   17.4841 C   0  0  0  0  0  0  0  0  0  0  0  0
    2.1361   -4.7259   26.8962 C   0  0  0  0  0  0  0  0  0  0  0  0
    5.7576   -6.6116   26.5421 C   0  0  0  0  0  0  0  0  0  0  0  0
    4.6363  -10.9131   15.8771 C   0  0  0  0  0  0  0  0  0  0  0  0
    3.7242   -7.1376   26.0377 C   0  0  0  0  0  0  0  0  0  0  0  0
  1 11  4  0
  1 23  4  0
  2  7  4  0
  3 12  4  0
  5  7  4  0
  5 24  4  0
  6 21  4  0
  8 27  4  0
 12 24  4  0
 18 28  1  0
M  END
$$$$

 Created by Python create_sdf_string function

 28 14  0  0  0  0  0  0  0  0999 V2000
    1.4978  -10.0774   17.3006 C   0  0  0  0  0  0  0  0  0  0  0  0
    6.3289   -8.6958   18.2929 O   0  0  0  0  0  0  0  0  0  0  0  0
    6.3579   -9.4362   16.7524 C   0  0  0  0  0  0  0  0  0  0  0  0
    6.7097   -8.0089   18.1517 C   0  0  0  0  0  0  0  0  0  0  0  0
    6.8004   -6.9803   19.8096 Cl  0  0  0  0  0  0  0  0  0  0  0  0
    4.6883  -10.7451   15.2820 C   0  0  0  0  0  0  0  0  0  0  0  0
    0.8334   -4.6417   27.8233 N   0  0  0  0  0  0  0  0  0  0  0  0
    1.3483   -9.9907   16.9478 C   0  0  0  0  0  0  0  0  0  0  0  0
    7.6726   -7.9300   17.8345 C   0  0  0  0  0  0  0  0  0  0  0  0
    2.1293   -4.8764   25.5160 F   0  0  0  0  0  0  0  0  0  0  0  0
    3.9936   -5.1216   25.8132 C   0  0  0  0  0  0  0  0  0  0  0  0
    3.1133   -5.8329   26.9591 He  0  0  0  0  0  0  0  0  0  0  0  0
   -1.1536   -6.3590   27.4865 He  0  0  0  0  0  0  0  0  0  0  0  0
   -0.1970   -5.6333   27.0343 He  0  0  0  0  0  0  0  0  0  0  0  0
    4.0104  -12.4922   14.6254 He  0  0  0  0  0  0  0  0  0  0  0  0
    1.1268   -8.8795   17.5993 He  0  0  0  0  0  0  0  0  0  0  0  0
    6.3464   -9.0436   18.8190 He  0  0  0  0  0  0  0  0  0  0  0  0
    3.4690   -8.5946   17.2987 He  0  0  0  0  0  0  0  0  0  0  0  0
    2.6829   -6.0352   28.8768 He  0  0  0  0  0  0  0  0  0  0  0  0
    2.8624  -10.7456   16.7810 He  0  0  0  0  0  0  0  0  0  0  0  0
    5.7361   -6.1303   27.7355 He  0  0  0  0  0  0  0  0  0  0  0  0
    2.5644   -7.8072   27.9450 He  0  0  0  0  0  0  0  0  0  0  0  0
    2.3079   -4.8376   29.0321 He  0  0  0  0  0  0  0  0  0  0  0  0
   -0.1814   -5.3333   26.8848 He  0  0  0  0  0  0  0  0  0  0  0  0
   -0.3739   -6.6993   26.6252 He  0  0  0  0  0  0  0  0  0  0  0  0
    4.4507   -5.5356   26.7581 He  0  0  0  0  0  0  0  0  0  0  0  0
    3.8526   -8.0397   28.3134 He  0  0  0  0  0  0  0  0  0  0  0  0
    3.7829   -9.4924   16.0752 He  0  0  0  0  0  0  0  0  0  0  0  0
  1  8  1  0
  1  9  2  0
  1 11  4  0
  2  6  1  0
  2  7  4  0
  2  8  1  0
  2 11  4  0
  3  7  2  0
  4  7  3  0
  4  9  4  0
  4 11  2  0
  5  9  3  0
  7  8  1  0
  9 10  2  0
M  END
$$$$

 Created by Python create_sdf_string function

 28  7  0  0  0  0  0  0  0  0999 V2000
    1.3989   -9.9403   17.1373 C   0  0  0  0  0  0  0  0  0  0  0  0
    5.6121   -8.8926   17.6027 C   0  0  0  0  0  0  0  0  0  0  0  0
    5.9581   -9.5051   16.9318 C   0  0  0  0  0  0  0  0  0  0  0  0
    3.0517   -5.9318   27.3620 C   0  0  0  0  0  0  0  0  0  0  0  0
    7.0504   -8.0134   17.6353 C   0  0  0  0  0  0  0  0  0  0  0  0
   -0.7720   -5.6748   27.7306 C   0  0  0  0  0  0  0  0  0  0  0  0
    6.4973   -7.9283   18.5446 C   0  0  0  0  0  0  0  0  0  0  0  0
    4.7533  -11.0344   15.8067 C   0  0  0  0  0  0  0  0  0  0  0  0
   -0.0999   -5.4540   27.2988 C   0  0  0  0  0  0  0  0  0  0  0  0
    4.0559  -11.5575   15.4186 C   0  0  0  0  0  0  0  0  0  0  0  0
    1.4437   -9.3947   17.0418 C   0  0  0  0  0  0  0  0  0  0  0  0
    5.9205   -8.5920   18.0788 C   0  0  0  0  0  0  0  0  0  0  0  0
    3.4561   -9.3554   17.1342 C   0  0  0  0  0  0  0  0  0  0  0  0
    2.8595   -6.2456   28.5249 C   0  0  0  0  0  0  0  0  0  0  0  0
    2.9648  -10.6215   16.4899 C   0  0  0  0  0  0  0  0  0  0  0  0
    5.2879   -6.3699   27.6578 C   0  0  0  0  0  0  0  0  0  0  0  0
    0.9555   -4.8565   27.7909 C   0  0  0  0  0  0  0  0  0  0  0  0
    2.6601   -7.3776   27.7767 C   0  0  0  0  0  0  0  0  0  0  0  0
    2.1461   -5.0553   28.6455 C   0  0  0  0  0  0  0  0  0  0  0  0
   -0.2979   -5.1139   27.1407 C   0  0  0  0  0  0  0  0  0  0  0  0
    0.2112   -6.1866   27.1308 C   0  0  0  0  0  0  0  0  0  0  0  0
    4.5157   -6.0006   27.2270 C   0  0  0  0  0  0  0  0  0  0  0  0
    1.3752   -9.9502   16.6949 C   0  0  0  0  0  0  0  0  0  0  0  0
    7.4427   -7.9710   17.6985 C   0  0  0  0  0  0  0  0  0  0  0  0
    2.1484   -5.2143   26.5729 C   0  0  0  0  0  0  0  0  0  0  0  0
    3.9301   -7.5610   27.9878 C   0  0  0  0  0  0  0  0  0  0  0  0
    3.9363  -10.1202   16.4932 C   0  0  0  0  0  0  0  0  0  0  0  0
    3.9970   -5.7949   26.8911 C   0  0  0  0  0  0  0  0  0  0  0  0
  1 11  4  0
  1 23  1  0
  2  3  4  0
  2 12  4  0
  5 24  4  0
  7 12  4  0
 22 28  1  0
M  END
$$$$

 Created by Python create_sdf_string function

 28 61  0  0  0  0  0  0  0  0999 V2000
    1.7235   -9.9395   17.0816 C   0  0  0  0  0  0  0  0  0  0  0  0
    6.2851   -9.4976   16.7177 O   0  0  0  0  0  0  0  0  0  0  0  0
    3.3168   -5.9229   27.2284 N   0  0  0  0  0  0  0  0  0  0  0  0
    7.2641   -8.3558   17.9222 Br  0  0  0  0  0  0  0  0  0  0  0  0
    0.4911   -4.6633   29.2175 C   0  0  0  0  0  0  0  0  0  0  0  0
    4.6797  -10.8347   16.0376 C   0  0  0  0  0  0  0  0  0  0  0  0
    3.1145  -11.2851   16.1060 I   0  0  0  0  0  0  0  0  0  0  0  0
    0.4980   -9.6581   16.6758 N   0  0  0  0  0  0  0  0  0  0  0  0
    6.0679   -8.4724   18.6704 P   0  0  0  0  0  0  0  0  0  0  0  0
    3.8502   -6.9914   28.4978 C   0  0  0  0  0  0  0  0  0  0  0  0
    3.4498  -10.5126   15.9253 C   0  0  0  0  0  0  0  0  0  0  0  0
    5.8189   -7.9150   27.6891 S   0  0  0  0  0  0  0  0  0  0  0  0
   -0.8446   -5.4398   28.4666 P   0  0  0  0  0  0  0  0  0  0  0  0
    2.0005   -5.9746   29.3467 O   0  0  0  0  0  0  0  0  0  0  0  0
   -1.5757   -4.5263   28.1872 Br  0  0  0  0  0  0  0  0  0  0  0  0
   -0.5804   -6.8484   28.3766 P   0  0  0  0  0  0  0  0  0  0  0  0
    2.5211   -6.6520   28.1976 C   0  0  0  0  0  0  0  0  0  0  0  0
    7.3591   -7.8176   17.8422 C   0  0  0  0  0  0  0  0  0  0  0  0
    3.9426   -5.0070   26.8782 Cl  0  0  0  0  0  0  0  0  0  0  0  0
    4.7985   -7.6540   18.0032 He  0  0  0  0  0  0  0  0  0  0  0  0
    6.8742   -7.0204   19.5310 He  0  0  0  0  0  0  0  0  0  0  0  0
   -0.6747   -4.2333   26.4589 He  0  0  0  0  0  0  0  0  0  0  0  0
    3.5774   -9.1012   16.9770 He  0  0  0  0  0  0  0  0  0  0  0  0
    1.2228   -8.3953   26.8503 He  0  0  0  0  0  0  0  0  0  0  0  0
    0.3900   -9.6611   17.0745 He  0  0  0  0  0  0  0  0  0  0  0  0
    2.8872   -7.4253   29.2009 He  0  0  0  0  0  0  0  0  0  0  0  0
    3.8840  -10.9481   18.4137 He  0  0  0  0  0  0  0  0  0  0  0  0
    4.0359   -8.0321   27.3410 He  0  0  0  0  0  0  0  0  0  0  0  0
  1  3  3  0
  1  5  1  0
  1  9  4  0
  1 10  3  0
  1 14  3  0
  2  3  3  0
  2  5  4  0
  2  6  4  0
  2  7  2  0
  2 12  3  0
  2 14  1  0
  2 15  4  0
  2 16  2  0
  3  4  2  0
  3  9  3  0
  3 10  1  0
  3 14  4  0
  3 18  2  0
  3 19  2  0
  4  7  1  0
  4  9  4  0
  4 13  2  0
  4 15  1  0
  4 16  3  0
  4 17  1  0
  4 19  3  0
  5  8  1  0
  5 10  3  0
  5 12  4  0
  5 19  3  0
  6  7  2  0
  6  8  2  0
  6  9  1  0
  6 12  2  0
  6 13  3  0
  6 14  3  0
  6 15  3  0
  7 14  2  0
  7 15  3  0
  7 16  3  0
  7 17  4  0
  8 19  2  0
  9 12  2  0
  9 16  2  0
  9 17  3  0
 10 11  2  0
 10 12  2  0
 10 13  3  0
 10 18  2  0
 11 14  3  0
 11 15  1  0
 11 16  3  0
 11 17  2  0
 11 19  2  0
 12 14  4  0
 12 15  4  0
 13 15  3  0
 13 17  4  0
 15 16  4  0
 16 19  3  0
 17 19  1  0
M  END
$$$$

 Created by Python create_sdf_string function

 28  9  0  0  0  0  0  0  0  0999 V2000
    1.4878   -9.7009   17.0102 C   0  0  0  0  0  0  0  0  0  0  0  0
    5.3103   -8.3831   17.6329 C   0  0  0  0  0  0  0  0  0  0  0  0
    6.0126   -9.6597   16.9309 C   0  0  0  0  0  0  0  0  0  0  0  0
    3.2284   -6.0945   27.3467 C   0  0  0  0  0  0  0  0  0  0  0  0
    7.2402   -8.0552   17.6017 C   0  0  0  0  0  0  0  0  0  0  0  0
    0.3369   -4.9585   28.5191 C   0  0  0  0  0  0  0  0  0  0  0  0
    6.7786   -7.5161   18.2855 C   0  0  0  0  0  0  0  0  0  0  0  0
    4.8257  -10.6553   16.5630 C   0  0  0  0  0  0  0  0  0  0  0  0
   -0.4452   -4.7828   27.0824 C   0  0  0  0  0  0  0  0  0  0  0  0
    2.7896  -11.0956   16.3444 C   0  0  0  0  0  0  0  0  0  0  0  0
    0.8376   -9.7722   16.6897 C   0  0  0  0  0  0  0  0  0  0  0  0
    5.9011   -8.6210   18.0992 C   0  0  0  0  0  0  0  0  0  0  0  0
    3.2337   -9.5375   16.9825 C   0  0  0  0  0  0  0  0  0  0  0  0
    3.9834   -6.9500   28.0463 C   0  0  0  0  0  0  0  0  0  0  0  0
    3.4074  -10.5292   16.3058 C   0  0  0  0  0  0  0  0  0  0  0  0
    5.2803   -7.3575   27.3438 C   0  0  0  0  0  0  0  0  0  0  0  0
   -0.6460   -5.4497   28.3107 C   0  0  0  0  0  0  0  0  0  0  0  0
    1.8775   -7.6885   27.2587 C   0  0  0  0  0  0  0  0  0  0  0  0
    1.4896   -5.9374   28.8013 C   0  0  0  0  0  0  0  0  0  0  0  0
   -1.2138   -4.8583   27.7800 C   0  0  0  0  0  0  0  0  0  0  0  0
   -0.2279   -6.0978   28.2645 C   0  0  0  0  0  0  0  0  0  0  0  0
    2.2466   -6.5410   27.7156 C   0  0  0  0  0  0  0  0  0  0  0  0
    0.7576   -9.6614   16.9484 C   0  0  0  0  0  0  0  0  0  0  0  0
    7.3319   -7.8726   17.6807 C   0  0  0  0  0  0  0  0  0  0  0  0
    3.8267   -5.8293   27.1012 C   0  0  0  0  0  0  0  0  0  0  0  0
    2.9200   -7.2925   28.6400 C   0  0  0  0  0  0  0  0  0  0  0  0
    3.7046  -10.2495   17.5919 C   0  0  0  0  0  0  0  0  0  0  0  0
    4.1359   -7.7701   27.1470 C   0  0  0  0  0  0  0  0  0  0  0  0
  1 11  4  0
  1 23  1  0
  2 12  4  0
  3  8  4  0
  4 25  1  0
  5 24  4  0
  9 20  4  0
 11 23  4  0
 16 28  1  0
M  END
$$$$

 Created by Python create_sdf_string function

 28 31  0  0  0  0  0  0  0  0999 V2000
    1.0796  -10.0606   16.9502 C   0  0  0  0  0  0  0  0  0  0  0  0
    3.8015   -9.3943   17.4490 C   0  0  0  0  0  0  0  0  0  0  0  0
    7.2224   -7.4543   16.6713 F   0  0  0  0  0  0  0  0  0  0  0  0
    2.6771   -3.5461   28.8474 B   0  0  0  0  0  0  0  0  0  0  0  0
   -1.2087   -3.6747   25.3017 S   0  0  0  0  0  0  0  0  0  0  0  0
    6.6472   -8.9499   19.3084 O   0  0  0  0  0  0  0  0  0  0  0  0
    2.5406   -9.4088   17.0236 C   0  0  0  0  0  0  0  0  0  0  0  0
    5.2202   -7.5965   26.6732 F   0  0  0  0  0  0  0  0  0  0  0  0
   -1.9899   -5.6804   28.4540 C   0  0  0  0  0  0  0  0  0  0  0  0
    2.8179   -5.9170   28.3622 N   0  0  0  0  0  0  0  0  0  0  0  0
    0.2564   -9.9498   16.8742 C   0  0  0  0  0  0  0  0  0  0  0  0
    7.3291   -7.7851   17.1444 C   0  0  0  0  0  0  0  0  0  0  0  0
    4.9044   -7.7868   26.1030 C   0  0  0  0  0  0  0  0  0  0  0  0
    5.8373   -9.5728   17.1045 He  0  0  0  0  0  0  0  0  0  0  0  0
    0.9947   -7.5641   25.1859 He  0  0  0  0  0  0  0  0  0  0  0  0
    6.7594   -7.9250   19.8663 He  0  0  0  0  0  0  0  0  0  0  0  0
    5.3211  -10.3302   16.7285 He  0  0  0  0  0  0  0  0  0  0  0  0
    1.1896  -10.8699   15.1751 He  0  0  0  0  0  0  0  0  0  0  0  0
    0.5835   -7.8223   17.8991 He  0  0  0  0  0  0  0  0  0  0  0  0
    3.5917   -6.2332   27.4250 He  0  0  0  0  0  0  0  0  0  0  0  0
    3.4548  -10.0531   16.2204 He  0  0  0  0  0  0  0  0  0  0  0  0
    0.5124   -5.6957   28.8430 He  0  0  0  0  0  0  0  0  0  0  0  0
    1.7377   -9.2156   27.8714 He  0  0  0  0  0  0  0  0  0  0  0  0
    1.7862   -6.9814   28.8739 He  0  0  0  0  0  0  0  0  0  0  0  0
   -0.0850   -6.6596   27.6579 He  0  0  0  0  0  0  0  0  0  0  0  0
    3.4277   -6.0140   27.6927 He  0  0  0  0  0  0  0  0  0  0  0  0
    4.0405   -6.4171   29.4592 He  0  0  0  0  0  0  0  0  0  0  0  0
    4.7505  -10.5122   17.1933 He  0  0  0  0  0  0  0  0  0  0  0  0
  1  2  2  0
  1  4  3  0
  1  8  2  0
  1 11  1  0
  2  3  4  0
  2  5  3  0
  2  6  4  0
  3  5  3  0
  3  6  2  0
  3  8  3  0
  3  9  2  0
  3 12  4  0
  3 13  4  0
  4  7  1  0
  4  8  4  0
  4 11  1  0
  5  6  1  0
  6 10  2  0
  6 12  1  0
  7 10  3  0
  7 11  2  0
  7 12  3  0
  7 13  4  0
  8  9  4  0
  9 11  4  0
 10 11  2  0
 10 12  4  0
 10 13  4  0
 11 12  3  0
 11 13  2  0
 12 13  4  0
M  END
$$$$

 Created by Python create_sdf_string function

 28  6  0  0  0  0  0  0  0  0999 V2000
    0.6827   -9.8017   16.7060 C   0  0  0  0  0  0  0  0  0  0  0  0
    3.7302   -9.3877   17.0722 C   0  0  0  0  0  0  0  0  0  0  0  0
    5.5995   -9.4292   17.1245 C   0  0  0  0  0  0  0  0  0  0  0  0
    1.4271   -6.9690   26.6281 C   0  0  0  0  0  0  0  0  0  0  0  0
    7.1892   -7.8554   17.0649 C   0  0  0  0  0  0  0  0  0  0  0  0
    2.2227   -4.4171   28.4813 O   0  0  0  0  0  0  0  0  0  0  0  0
    6.3471   -8.3400   18.5855 C   0  0  0  0  0  0  0  0  0  0  0  0
    5.3568   -9.8156   16.8967 C   0  0  0  0  0  0  0  0  0  0  0  0
   -0.7817   -4.7109   26.6607 C   0  0  0  0  0  0  0  0  0  0  0  0
    1.5959  -10.4729   15.8050 C   0  0  0  0  0  0  0  0  0  0  0  0
    0.9806   -8.9843   17.0822 C   0  0  0  0  0  0  0  0  0  0  0  0
    6.1194   -8.6170   18.4590 C   0  0  0  0  0  0  0  0  0  0  0  0
    2.5632   -9.5816   16.7409 C   0  0  0  0  0  0  0  0  0  0  0  0
    3.4253   -6.3714   27.4270 C   0  0  0  0  0  0  0  0  0  0  0  0
    3.2614  -10.3104   16.3830 C   0  0  0  0  0  0  0  0  0  0  0  0
    4.7866   -7.2801   26.6692 C   0  0  0  0  0  0  0  0  0  0  0  0
    0.3974   -5.5087   28.2105 C   0  0  0  0  0  0  0  0  0  0  0  0
    2.2441   -8.0846   27.4093 C   0  0  0  0  0  0  0  0  0  0  0  0
    1.6626   -6.6106   28.2628 C   0  0  0  0  0  0  0  0  0  0  0  0
   -1.0338   -5.4468   28.0281 C   0  0  0  0  0  0  0  0  0  0  0  0
    0.1769   -5.8622   27.5535 C   0  0  0  0  0  0  0  0  0  0  0  0
    2.5180   -5.9666   28.1216 C   0  0  0  0  0  0  0  0  0  0  0  0
    0.3428   -9.6504   16.7776 C   0  0  0  0  0  0  0  0  0  0  0  0
    7.2629   -7.8814   17.1899 C   0  0  0  0  0  0  0  0  0  0  0  0
    3.2775   -6.1786   27.6788 C   0  0  0  0  0  0  0  0  0  0  0  0
    3.8979   -6.2132   28.7703 C   0  0  0  0  0  0  0  0  0  0  0  0
    4.4577  -10.3234   17.0168 C   0  0  0  0  0  0  0  0  0  0  0  0
    4.3658   -7.3997   26.3564 C   0  0  0  0  0  0  0  0  0  0  0  0
  1 23  4  0
  3  8  4  0
  5 24  4  0
  7 12  4  0
 11 23  4  0
 16 28  1  0
M  END
$$$$

 Created by Python create_sdf_string function

 28 76  0  0  0  0  0  0  0  0999 V2000
    0.4481   -9.8105   16.4151 C   0  0  0  0  0  0  0  0  0  0  0  0
    5.8544   -9.0368   15.7762 B   0  0  0  0  0  0  0  0  0  0  0  0
    5.3346   -9.8139   17.0998 C   0  0  0  0  0  0  0  0  0  0  0  0
    0.5742   -7.4420   28.4045 C   0  0  0  0  0  0  0  0  0  0  0  0
    6.7875   -7.9477   16.8850 C   0  0  0  0  0  0  0  0  0  0  0  0
    6.4334   -9.1661   19.3340 C   0  0  0  0  0  0  0  0  0  0  0  0
    5.7413  -10.0473   16.9185 C   0  0  0  0  0  0  0  0  0  0  0  0
    0.0335   -5.4699   26.6717 C   0  0  0  0  0  0  0  0  0  0  0  0
    1.3451  -11.4117   14.6062 I   0  0  0  0  0  0  0  0  0  0  0  0
    1.5213   -8.9141   18.4041 C   0  0  0  0  0  0  0  0  0  0  0  0
    4.3374  -10.3330   18.6737 N   0  0  0  0  0  0  0  0  0  0  0  0
    3.3603   -7.0521   25.5611 C   0  0  0  0  0  0  0  0  0  0  0  0
    3.0881   -9.8666   16.3426 C   0  0  0  0  0  0  0  0  0  0  0  0
   -0.4008   -6.3743   28.6825 F   0  0  0  0  0  0  0  0  0  0  0  0
    1.9963   -7.3660   28.1766 F   0  0  0  0  0  0  0  0  0  0  0  0
    1.0223   -5.4903   28.3752 C   0  0  0  0  0  0  0  0  0  0  0  0
    0.4178   -6.9924   26.9197 C   0  0  0  0  0  0  0  0  0  0  0  0
    0.2059   -9.3686   17.0995 C   0  0  0  0  0  0  0  0  0  0  0  0
    7.4500   -8.3446   17.5145 F   0  0  0  0  0  0  0  0  0  0  0  0
    3.7252   -6.0636   28.6497 C   0  0  0  0  0  0  0  0  0  0  0  0
    4.8994   -8.6908   17.6436 P   0  0  0  0  0  0  0  0  0  0  0  0
    2.7909   -5.6655   28.3927 He  0  0  0  0  0  0  0  0  0  0  0  0
    7.9970   -9.9966   18.9289 He  0  0  0  0  0  0  0  0  0  0  0  0
    5.7684   -7.1925   27.2098 He  0  0  0  0  0  0  0  0  0  0  0  0
    0.2987   -6.8378   29.3707 He  0  0  0  0  0  0  0  0  0  0  0  0
    1.3754   -6.2018   25.8120 He  0  0  0  0  0  0  0  0  0  0  0  0
    2.9409   -7.5163   27.4534 He  0  0  0  0  0  0  0  0  0  0  0  0
    3.7648   -6.9515   26.6797 He  0  0  0  0  0  0  0  0  0  0  0  0
  1 16  1  0
  1 18  4  0
  1 20  4  0
  2  3  1  0
  2  5  4  0
  2  8  1  0
  2 13  4  0
  2 15  3  0
  2 17  1  0
  2 18  3  0
  2 19  4  0
  2 20  2  0
  3  7  2  0
  3  9  3  0
  3 14  2  0
  3 21  1  0
  4  6  4  0
  4 11  4  0
  4 12  4  0
  4 14  2  0
  4 15  4  0
  4 18  1  0
  4 19  3  0
  5  6  4  0
  5  8  1  0
  5  9  2  0
  5 10  1  0
  5 11  3  0
  5 12  3  0
  6  7  3  0
  6 11  1  0
  6 12  4  0
  6 14  2  0
  6 15  4  0
  6 17  1  0
  6 18  3  0
  6 19  3  0
  6 21  2  0
  7  8  3  0
  7 10  1  0
  7 14  1  0
  7 15  3  0
  7 20  4  0
  8 10  1  0
  8 15  1  0
  8 17  1  0
  8 19  2  0
  9 11  2  0
  9 12  1  0
  9 13  1  0
  9 17  2  0
  9 20  2  0
 10 14  2  0
 10 15  2  0
 10 19  2  0
 11 15  4  0
 11 16  3  0
 12 13  4  0
 12 16  3  0
 12 19  2  0
 12 21  3  0
 13 16  3  0
 13 17  3  0
 14 15  3  0
 14 16  3  0
 14 20  4  0
 14 21  1  0
 15 16  2  0
 15 17  3  0
 15 20  2  0
 16 17  3  0
 16 20  3  0
 16 21  1  0
 17 20  1  0
 19 20  1  0
 19 21  1  0
M  END
$$$$

 Created by Python create_sdf_string function

 28 10  0  0  0  0  0  0  0  0999 V2000
    0.6744   -9.8540   16.2737 C   0  0  0  0  0  0  0  0  0  0  0  0
    5.7926   -9.0387   16.2545 C   0  0  0  0  0  0  0  0  0  0  0  0
    4.9879   -9.7429   17.0027 C   0  0  0  0  0  0  0  0  0  0  0  0
    0.6429   -7.1203   28.7976 C   0  0  0  0  0  0  0  0  0  0  0  0
    7.0654   -8.0131   16.9809 C   0  0  0  0  0  0  0  0  0  0  0  0
    2.8692   -5.9080   28.4433 C   0  0  0  0  0  0  0  0  0  0  0  0
    6.2383   -8.6672   18.4754 C   0  0  0  0  0  0  0  0  0  0  0  0
    5.2116   -9.7079   17.0447 C   0  0  0  0  0  0  0  0  0  0  0  0
   -0.0158   -5.4474   27.0113 C   0  0  0  0  0  0  0  0  0  0  0  0
    1.7597  -10.4696   15.5549 C   0  0  0  0  0  0  0  0  0  0  0  0
    1.7387   -9.7375   17.3859 C   0  0  0  0  0  0  0  0  0  0  0  0
    7.7804   -8.0561   17.9476 C   0  0  0  0  0  0  0  0  0  0  0  0
    3.6648  -10.2248   17.8323 C   0  0  0  0  0  0  0  0  0  0  0  0
    3.6892   -7.0864   26.1878 C   0  0  0  0  0  0  0  0  0  0  0  0
    2.7802  -10.0243   16.4247 C   0  0  0  0  0  0  0  0  0  0  0  0
    5.2383   -6.9090   27.2336 C   0  0  0  0  0  0  0  0  0  0  0  0
   -0.5828   -6.2128   28.7975 C   0  0  0  0  0  0  0  0  0  0  0  0
    1.9269   -7.0974   28.4022 C   0  0  0  0  0  0  0  0  0  0  0  0
    1.1437   -5.7034   28.3334 C   0  0  0  0  0  0  0  0  0  0  0  0
    0.1957   -6.8383   29.3680 C   0  0  0  0  0  0  0  0  0  0  0  0
    0.6359   -6.1118   27.2272 C   0  0  0  0  0  0  0  0  0  0  0  0
    1.6728   -6.1019   26.5225 C   0  0  0  0  0  0  0  0  0  0  0  0
    0.5642   -9.5929   16.8296 C   0  0  0  0  0  0  0  0  0  0  0  0
    7.6413   -7.9000   17.3561 C   0  0  0  0  0  0  0  0  0  0  0  0
    3.3492   -7.0375   27.4956 C   0  0  0  0  0  0  0  0  0  0  0  0
    3.7405   -6.1409   28.5145 C   0  0  0  0  0  0  0  0  0  0  0  0
    4.3331   -9.4864   17.2619 C   0  0  0  0  0  0  0  0  0  0  0  0
    4.1176   -6.9963   26.6540 C   0  0  0  0  0  0  0  0  0  0  0  0
  1 10  4  0
  1 23  4  0
  2  5  4  0
  3  8  4  0
  5 24  4  0
  6 26  1  0
  9 21  1  0
 10 15  4  0
 11 23  4  0
 14 28  1  0
M  END
$$$$

 Created by Python create_sdf_string function

 28 60  0  0  0  0  0  0  0  0999 V2000
    0.1155   -9.8357   15.9298 C   0  0  0  0  0  0  0  0  0  0  0  0
    5.0398   -9.6451   15.3993 N   0  0  0  0  0  0  0  0  0  0  0  0
    4.6652  -10.1061   16.8904 C   0  0  0  0  0  0  0  0  0  0  0  0
    6.1474   -8.4743   18.9681 C   0  0  0  0  0  0  0  0  0  0  0  0
    5.1125   -9.2013   16.8303 C   0  0  0  0  0  0  0  0  0  0  0  0
    0.8200  -10.8471   16.4783 N   0  0  0  0  0  0  0  0  0  0  0  0
    7.3039   -8.6882   18.4085 C   0  0  0  0  0  0  0  0  0  0  0  0
    3.5992  -10.9330   17.7414 O   0  0  0  0  0  0  0  0  0  0  0  0
    5.0723   -7.9581   27.8081 N   0  0  0  0  0  0  0  0  0  0  0  0
    6.1549   -8.1096   26.3036 F   0  0  0  0  0  0  0  0  0  0  0  0
   -0.8851   -5.5225   28.7067 F   0  0  0  0  0  0  0  0  0  0  0  0
    1.4093   -6.8895   28.0229 C   0  0  0  0  0  0  0  0  0  0  0  0
    2.6308   -6.8169   30.0460 N   0  0  0  0  0  0  0  0  0  0  0  0
   -1.3730   -6.4127   26.8021 S   0  0  0  0  0  0  0  0  0  0  0  0
    1.8784   -6.3058   27.2597 F   0  0  0  0  0  0  0  0  0  0  0  0
    0.9706  -10.0036   16.1761 C   0  0  0  0  0  0  0  0  0  0  0  0
    2.6534   -5.9805   25.3789 N   0  0  0  0  0  0  0  0  0  0  0  0
    4.2334   -9.3347   17.7126 C   0  0  0  0  0  0  0  0  0  0  0  0
    0.3226   -6.4604   29.0468 He  0  0  0  0  0  0  0  0  0  0  0  0
    7.5682   -8.4438   16.4470 He  0  0  0  0  0  0  0  0  0  0  0  0
    4.0102   -7.9634   27.5846 He  0  0  0  0  0  0  0  0  0  0  0  0
   -2.6412   -6.0345   25.9728 He  0  0  0  0  0  0  0  0  0  0  0  0
    2.0094  -10.8657   15.2908 He  0  0  0  0  0  0  0  0  0  0  0  0
    2.6742  -10.1281   15.5289 He  0  0  0  0  0  0  0  0  0  0  0  0
    0.9663   -7.3213   28.6261 He  0  0  0  0  0  0  0  0  0  0  0  0
    7.9449   -7.6978   17.3606 He  0  0  0  0  0  0  0  0  0  0  0  0
    2.2225   -6.0584   27.1055 He  0  0  0  0  0  0  0  0  0  0  0  0
    4.5138   -7.0134   26.2051 He  0  0  0  0  0  0  0  0  0  0  0  0
  1  4  1  0
  1  8  4  0
  1  9  1  0
  1 12  1  0
  1 13  1  0
  1 16  4  0
  1 17  2  0
  1 18  3  0
  2  4  2  0
  2  5  2  0
  2  7  1  0
  2 10  2  0
  2 14  4  0
  2 15  2  0
  2 17  4  0
  3  5  4  0
  3  6  3  0
  3 10  3  0
  3 13  1  0
  4  5  2  0
  4  6  3  0
  4  9  1  0
  4 12  1  0
  4 13  3  0
  4 15  4  0
  5  6  4  0
  5  9  4  0
  5 10  3  0
  5 18  4  0
  6  8  1  0
  6  9  3  0
  6 10  3  0
  6 11  3  0
  6 14  4  0
  6 15  2  0
  6 18  3  0
  7  8  3  0
  7  9  4  0
  7 10  2  0
  7 17  3  0
  7 18  4  0
  8 10  4  0
  8 12  3  0
  8 16  4  0
  9 10  2  0
  9 12  2  0
  9 13  1  0
  9 16  2  0
 10 13  1  0
 10 17  3  0
 11 12  1  0
 11 15  1  0
 11 18  4  0
 12 15  3  0
 13 14  4  0
 14 17  1  0
 14 18  1  0
 15 16  1  0
 15 18  3  0
 16 17  1  0
M  END
$$$$

 Created by Python create_sdf_string function

 28 11  0  0  0  0  0  0  0  0999 V2000
    0.5749   -9.8630   16.0738 C   0  0  0  0  0  0  0  0  0  0  0  0
    5.1160   -9.8014   15.7170 C   0  0  0  0  0  0  0  0  0  0  0  0
    4.2526  -10.0788   16.6720 C   0  0  0  0  0  0  0  0  0  0  0  0
   -0.1144   -6.3138   28.6907 C   0  0  0  0  0  0  0  0  0  0  0  0
    7.1411   -8.3514   16.7044 C   0  0  0  0  0  0  0  0  0  0  0  0
    4.1613   -7.5250   27.6688 C   0  0  0  0  0  0  0  0  0  0  0  0
    6.0772   -8.5586   18.4459 C   0  0  0  0  0  0  0  0  0  0  0  0
    5.2582   -9.3494   17.0115 C   0  0  0  0  0  0  0  0  0  0  0  0
   -1.4190   -5.2306   26.7906 C   0  0  0  0  0  0  0  0  0  0  0  0
    2.1283  -10.4176   15.4649 C   0  0  0  0  0  0  0  0  0  0  0  0
    1.2638  -10.5703   16.8458 C   0  0  0  0  0  0  0  0  0  0  0  0
    6.9515   -7.9847   17.9757 C   0  0  0  0  0  0  0  0  0  0  0  0
    2.9840  -10.3937   17.5033 C   0  0  0  0  0  0  0  0  0  0  0  0
    4.7393   -7.6499   27.7723 C   0  0  0  0  0  0  0  0  0  0  0  0
    2.8335  -10.2291   15.9380 C   0  0  0  0  0  0  0  0  0  0  0  0
    5.4007   -7.6474   26.5115 C   0  0  0  0  0  0  0  0  0  0  0  0
   -1.0318   -5.7365   28.2293 C   0  0  0  0  0  0  0  0  0  0  0  0
    1.0564   -6.4325   27.8892 C   0  0  0  0  0  0  0  0  0  0  0  0
    1.0199   -6.7947   28.6283 C   0  0  0  0  0  0  0  0  0  0  0  0
    2.5960   -7.3084   29.2449 C   0  0  0  0  0  0  0  0  0  0  0  0
   -0.7601   -5.4561   27.0460 C   0  0  0  0  0  0  0  0  0  0  0  0
    1.8048   -6.4275   27.2723 C   0  0  0  0  0  0  0  0  0  0  0  0
    0.8116   -9.9413   16.3787 C   0  0  0  0  0  0  0  0  0  0  0  0
    7.5665   -7.8890   17.3750 C   0  0  0  0  0  0  0  0  0  0  0  0
    2.1167   -6.4234   27.0533 C   0  0  0  0  0  0  0  0  0  0  0  0
    3.0488   -6.5467   26.2176 C   0  0  0  0  0  0  0  0  0  0  0  0
    4.8339   -9.4448   17.5005 C   0  0  0  0  0  0  0  0  0  0  0  0
    4.5191   -7.2442   26.3400 C   0  0  0  0  0  0  0  0  0  0  0  0
  1 23  4  0
  3  8  4  0
  5 24  4  0
  6 14  4  0
  7 12  4  0
  8 27  4  0
  9 21  4  0
 10 15  4  0
 12 24  4  0
 16 28  1  0
 25 26  4  0
M  END
$$$$

 Created by Python create_sdf_string function

 28 41  0  0  0  0  0  0  0  0999 V2000
    0.4655   -9.5290   15.3810 N   0  0  0  0  0  0  0  0  0  0  0  0
    5.7855   -9.6603   14.7719 C   0  0  0  0  0  0  0  0  0  0  0  0
    4.0968  -10.2257   16.7445 C   0  0  0  0  0  0  0  0  0  0  0  0
    7.0492   -7.9100   17.1254 C   0  0  0  0  0  0  0  0  0  0  0  0
    4.3842   -7.1019   28.4344 O   0  0  0  0  0  0  0  0  0  0  0  0
    6.3054   -9.8217   18.7033 S   0  0  0  0  0  0  0  0  0  0  0  0
    5.0901   -9.5647   16.7383 C   0  0  0  0  0  0  0  0  0  0  0  0
    2.8138  -10.9852   14.9985 N   0  0  0  0  0  0  0  0  0  0  0  0
    1.9332   -9.3714   18.5821 S   0  0  0  0  0  0  0  0  0  0  0  0
    3.2729   -7.5533   27.0143 C   0  0  0  0  0  0  0  0  0  0  0  0
    2.3648  -10.2884   15.5881 O   0  0  0  0  0  0  0  0  0  0  0  0
    0.4255   -6.1060   26.7032 Cl  0  0  0  0  0  0  0  0  0  0  0  0
   -1.8272   -5.7905   25.6039 C   0  0  0  0  0  0  0  0  0  0  0  0
    7.4250   -7.6966   17.1833 C   0  0  0  0  0  0  0  0  0  0  0  0
    4.2374   -7.4591   27.0278 C   0  0  0  0  0  0  0  0  0  0  0  0
    5.0548   -8.7254   17.3745 B   0  0  0  0  0  0  0  0  0  0  0  0
    1.1996   -4.3625   26.8631 He  0  0  0  0  0  0  0  0  0  0  0  0
   -1.9183   -5.3068   25.0621 He  0  0  0  0  0  0  0  0  0  0  0  0
    7.5309   -7.2566   18.2574 He  0  0  0  0  0  0  0  0  0  0  0  0
    2.9298   -8.7034   18.9956 He  0  0  0  0  0  0  0  0  0  0  0  0
    4.5577   -6.9090   26.2901 He  0  0  0  0  0  0  0  0  0  0  0  0
    1.7922   -7.7865   29.4606 He  0  0  0  0  0  0  0  0  0  0  0  0
    1.9150   -7.7342   29.5607 He  0  0  0  0  0  0  0  0  0  0  0  0
    2.7374   -7.9197   32.0596 He  0  0  0  0  0  0  0  0  0  0  0  0
    1.7364   -7.6984   27.5026 He  0  0  0  0  0  0  0  0  0  0  0  0
    0.8365  -10.4919   16.0179 He  0  0  0  0  0  0  0  0  0  0  0  0
    3.2151   -6.4771   27.0542 He  0  0  0  0  0  0  0  0  0  0  0  0
    5.5129   -6.4562   26.2446 He  0  0  0  0  0  0  0  0  0  0  0  0
  1  5  4  0
  1  7  4  0
  1  8  4  0
  2  9  3  0
  2 10  3  0
  2 11  2  0
  2 13  2  0
  2 14  4  0
  2 15  1  0
  3  5  1  0
  3  6  2  0
  3  7  4  0
  3  9  1  0
  3 10  2  0
  3 11  1  0
  3 13  2  0
  3 16  3  0
  4 13  4  0
  4 14  4  0
  4 15  2  0
  5  8  2  0
  5 11  4  0
  5 15  1  0
  6  7  4  0
  6  9  2  0
  6 10  3  0
  6 11  3  0
  6 12  4  0
  6 13  3  0
  7  8  4  0
  7  9  3  0
  8  9  2  0
  8 14  3  0
  9 11  1  0
  9 14  3  0
 10 14  4  0
 11 13  2  0
 11 16  1  0
 12 16  1  0
 13 14  4  0
 14 15  1  0
M  END
$$$$

 Created by Python create_sdf_string function

 28 11  0  0  0  0  0  0  0  0999 V2000
    0.8953   -9.9973   15.6660 C   0  0  0  0  0  0  0  0  0  0  0  0
    5.7340   -9.3684   15.6917 C   0  0  0  0  0  0  0  0  0  0  0  0
    3.9711   -9.9783   16.5887 C   0  0  0  0  0  0  0  0  0  0  0  0
    0.9321   -4.9243   26.7165 C   0  0  0  0  0  0  0  0  0  0  0  0
    7.1643   -7.9466   16.8713 C   0  0  0  0  0  0  0  0  0  0  0  0
    4.0961   -7.3254   28.4338 O   0  0  0  0  0  0  0  0  0  0  0  0
    5.9709   -8.4434   18.3924 C   0  0  0  0  0  0  0  0  0  0  0  0
    5.1933   -9.4528   16.8862 C   0  0  0  0  0  0  0  0  0  0  0  0
   -1.0336   -5.1849   26.2315 O   0  0  0  0  0  0  0  0  0  0  0  0
    2.6674  -10.4830   15.2304 C   0  0  0  0  0  0  0  0  0  0  0  0
    1.6753   -9.8473   17.3612 C   0  0  0  0  0  0  0  0  0  0  0  0
    7.5215   -7.4604   17.9758 C   0  0  0  0  0  0  0  0  0  0  0  0
    3.0590   -9.7422   17.6175 C   0  0  0  0  0  0  0  0  0  0  0  0
    2.9204   -7.0172   27.2663 C   0  0  0  0  0  0  0  0  0  0  0  0
    2.9107  -10.2126   15.8479 C   0  0  0  0  0  0  0  0  0  0  0  0
    4.3270   -6.9412   26.5021 C   0  0  0  0  0  0  0  0  0  0  0  0
    0.5021   -6.0522   27.0844 C   0  0  0  0  0  0  0  0  0  0  0  0
    1.6452   -7.5513   29.1539 C   0  0  0  0  0  0  0  0  0  0  0  0
    2.0343   -7.5949   29.4059 C   0  0  0  0  0  0  0  0  0  0  0  0
    2.5633   -7.8790   30.5811 O   0  0  0  0  0  0  0  0  0  0  0  0
   -0.6623   -5.3528   26.6498 C   0  0  0  0  0  0  0  0  0  0  0  0
    1.5391   -6.9646   27.8086 C   0  0  0  0  0  0  0  0  0  0  0  0
    0.9320   -9.9762   15.9613 C   0  0  0  0  0  0  0  0  0  0  0  0
    7.3725   -7.8086   16.9116 C   0  0  0  0  0  0  0  0  0  0  0  0
    2.6871   -6.4461   26.9407 C   0  0  0  0  0  0  0  0  0  0  0  0
    3.9972   -7.2706   27.4044 C   0  0  0  0  0  0  0  0  0  0  0  0
    5.3423   -9.0509   17.3650 C   0  0  0  0  0  0  0  0  0  0  0  0
    5.0629   -6.8067   26.5522 C   0  0  0  0  0  0  0  0  0  0  0  0
  1 23  4  0
  3  8  4  0
  5 24  4  0
  7 12  4  0
  7 27  4  0
  8 27  4  0
  9 21  1  0
 10 15  4  0
 11 13  4  0
 16 28  1  0
 18 19  1  0
M  END
$$$$

 Created by Python create_sdf_string function

 28 41  0  0  0  0  0  0  0  0999 V2000
    3.8491   -9.8575   16.9884 C   0  0  0  0  0  0  0  0  0  0  0  0
   -0.0804   -5.1177   26.3710 Cl  0  0  0  0  0  0  0  0  0  0  0  0
    7.1188   -8.0371   17.1250 C   0  0  0  0  0  0  0  0  0  0  0  0
    6.5018   -7.5719   18.0698 F   0  0  0  0  0  0  0  0  0  0  0  0
   -2.0542   -4.1741   26.0783 O   0  0  0  0  0  0  0  0  0  0  0  0
    8.0475   -5.2662   18.1324 C   0  0  0  0  0  0  0  0  0  0  0  0
    2.8358   -9.7751   15.8600 C   0  0  0  0  0  0  0  0  0  0  0  0
    0.3625   -5.2235   27.8108 C   0  0  0  0  0  0  0  0  0  0  0  0
    1.9396   -8.8322   29.9154 N   0  0  0  0  0  0  0  0  0  0  0  0
    3.5567   -7.4711   30.4781 O   0  0  0  0  0  0  0  0  0  0  0  0
   -0.4962   -5.7317   27.1678 C   0  0  0  0  0  0  0  0  0  0  0  0
    7.7470   -8.3898   16.6096 C   0  0  0  0  0  0  0  0  0  0  0  0
    3.2690   -6.7688   26.4169 C   0  0  0  0  0  0  0  0  0  0  0  0
    6.7773   -9.8497   16.3724 O   0  0  0  0  0  0  0  0  0  0  0  0
    4.7301   -6.9503   26.6833 F   0  0  0  0  0  0  0  0  0  0  0  0
   -0.1607  -10.1436   15.5212 He  0  0  0  0  0  0  0  0  0  0  0  0
    6.5223   -9.4613   15.6344 He  0  0  0  0  0  0  0  0  0  0  0  0
    3.9935   -7.8324   28.3025 He  0  0  0  0  0  0  0  0  0  0  0  0
    5.5617   -9.5293   17.4387 He  0  0  0  0  0  0  0  0  0  0  0  0
    3.3738   -9.4611   14.7105 He  0  0  0  0  0  0  0  0  0  0  0  0
    1.1659  -12.0688   18.8542 He  0  0  0  0  0  0  0  0  0  0  0  0
    2.7263   -9.9916   17.4548 He  0  0  0  0  0  0  0  0  0  0  0  0
    1.7916   -6.8571   26.0979 He  0  0  0  0  0  0  0  0  0  0  0  0
    3.0420   -6.3114   28.4774 He  0  0  0  0  0  0  0  0  0  0  0  0
    2.4095   -6.5261   29.6476 He  0  0  0  0  0  0  0  0  0  0  0  0
    0.9407   -5.8597   28.6795 He  0  0  0  0  0  0  0  0  0  0  0  0
    0.5002  -10.1358   16.0210 He  0  0  0  0  0  0  0  0  0  0  0  0
    3.4022   -6.5278   29.0106 He  0  0  0  0  0  0  0  0  0  0  0  0
  1  3  2  0
  1  5  1  0
  1  9  1  0
  1 13  4  0
  1 14  1  0
  2  4  4  0
  2  5  2  0
  2  6  2  0
  2  7  3  0
  2  9  1  0
  3  5  3  0
  3  6  4  0
  3 10  1  0
  3 12  4  0
  3 15  2  0
  4  6  2  0
  4  7  4  0
  4 12  1  0
  4 14  2  0
  4 15  3  0
  5  6  2  0
  5 12  4  0
  5 13  3  0
  6 10  1  0
  6 11  1  0
  6 13  1  0
  7  9  2  0
  7 11  3  0
  7 12  2  0
  7 14  3  0
  8 10  4  0
  8 12  3  0
  8 14  3  0
  8 15  3  0
  9 14  1  0
 10 12  2  0
 10 15  2  0
 11 12  4  0
 11 15  1  0
 12 13  3  0
 14 15  4  0
M  END
$$$$

 Created by Python create_sdf_string function

 28  9  0  0  0  0  0  0  0  0999 V2000
    0.6261  -10.0612   15.9719 C   0  0  0  0  0  0  0  0  0  0  0  0
    5.8984   -8.9965   16.7894 C   0  0  0  0  0  0  0  0  0  0  0  0
    3.9921   -9.9941   17.2964 C   0  0  0  0  0  0  0  0  0  0  0  0
   -0.1833   -5.2185   26.7228 C   0  0  0  0  0  0  0  0  0  0  0  0
    7.3569   -7.7756   17.2425 C   0  0  0  0  0  0  0  0  0  0  0  0
    3.9138   -7.6034   28.4678 C   0  0  0  0  0  0  0  0  0  0  0  0
    6.4546   -7.7810   17.9648 C   0  0  0  0  0  0  0  0  0  0  0  0
    4.9743   -9.5655   17.3393 C   0  0  0  0  0  0  0  0  0  0  0  0
   -1.3575   -4.6852   26.5990 O   0  0  0  0  0  0  0  0  0  0  0  0
    3.6294   -9.5682   15.6936 C   0  0  0  0  0  0  0  0  0  0  0  0
    1.4706  -10.6180   17.9212 C   0  0  0  0  0  0  0  0  0  0  0  0
    7.8636   -6.8491   17.7929 C   0  0  0  0  0  0  0  0  0  0  0  0
    2.4621  -10.0941   17.1636 C   0  0  0  0  0  0  0  0  0  0  0  0
    1.8144   -5.9897   26.5332 C   0  0  0  0  0  0  0  0  0  0  0  0
    2.8219   -9.6838   16.0390 C   0  0  0  0  0  0  0  0  0  0  0  0
    2.8742   -6.6570   28.1419 C   0  0  0  0  0  0  0  0  0  0  0  0
    0.3644   -5.5598   27.6794 C   0  0  0  0  0  0  0  0  0  0  0  0
    2.1961   -6.8263   29.6395 C   0  0  0  0  0  0  0  0  0  0  0  0
    2.2324   -8.0513   29.8541 O   0  0  0  0  0  0  0  0  0  0  0  0
    3.4466   -7.5951   30.3299 O   0  0  0  0  0  0  0  0  0  0  0  0
   -0.4329   -5.2964   27.2680 C   0  0  0  0  0  0  0  0  0  0  0  0
    0.8143   -5.9557   28.5502 C   0  0  0  0  0  0  0  0  0  0  0  0
    0.9089  -10.1124   16.4684 C   0  0  0  0  0  0  0  0  0  0  0  0
    7.5685   -7.9755   16.8360 C   0  0  0  0  0  0  0  0  0  0  0  0
    3.0860   -6.6806   26.6148 C   0  0  0  0  0  0  0  0  0  0  0  0
    3.0920   -6.7462   28.6932 C   0  0  0  0  0  0  0  0  0  0  0  0
    5.8805   -9.3721   16.7855 C   0  0  0  0  0  0  0  0  0  0  0  0
    4.3020   -7.0137   26.7533 C   0  0  0  0  0  0  0  0  0  0  0  0
  1 23  1  0
  2  8  4  0
  3  8  4  0
  5 12  4  0
  5 24  4  0
 10 15  4  0
 11 13  4  0
 16 26  1  0
 25 28  1  0
M  END
$$$$

 Created by Python create_sdf_string function

 28 89  0  0  0  0  0  0  0  0999 V2000
    0.3326  -10.6838   15.8754 C   0  0  0  0  0  0  0  0  0  0  0  0
    5.8829   -8.7255   17.5664 Cl  0  0  0  0  0  0  0  0  0  0  0  0
    3.8827   -9.3928   16.7682 C   0  0  0  0  0  0  0  0  0  0  0  0
    7.8806   -8.1991   17.5421 C   0  0  0  0  0  0  0  0  0  0  0  0
    7.4836   -7.5876   18.1465 C   0  0  0  0  0  0  0  0  0  0  0  0
    4.7397   -9.8028   17.2631 C   0  0  0  0  0  0  0  0  0  0  0  0
   -0.5590   -4.5330   25.0451 O   0  0  0  0  0  0  0  0  0  0  0  0
    2.8742   -9.7648   15.5343 C   0  0  0  0  0  0  0  0  0  0  0  0
    8.5112   -7.3502   17.0327 C   0  0  0  0  0  0  0  0  0  0  0  0
    2.6098  -11.5300   17.5498 C   0  0  0  0  0  0  0  0  0  0  0  0
    1.4302   -6.2621   26.4169 N   0  0  0  0  0  0  0  0  0  0  0  0
    1.9602   -9.3217   15.9137 C   0  0  0  0  0  0  0  0  0  0  0  0
    4.0095   -4.9677   27.1202 C   0  0  0  0  0  0  0  0  0  0  0  0
    1.0341   -5.5364   27.4133 C   0  0  0  0  0  0  0  0  0  0  0  0
    2.1445   -7.9621   29.4518 O   0  0  0  0  0  0  0  0  0  0  0  0
    2.2751   -7.2371   30.4555 Se  0  0  0  0  0  0  0  0  0  0  0  0
    0.1831   -6.9999   26.5964 O   0  0  0  0  0  0  0  0  0  0  0  0
    0.5617   -4.4754   28.5499 N   0  0  0  0  0  0  0  0  0  0  0  0
    0.9032  -10.3600   16.7717 C   0  0  0  0  0  0  0  0  0  0  0  0
    7.6115   -8.1815   16.7623 C   0  0  0  0  0  0  0  0  0  0  0  0
    3.2914   -6.2435   26.1568 F   0  0  0  0  0  0  0  0  0  0  0  0
    3.7025   -7.2184   29.5091 O   0  0  0  0  0  0  0  0  0  0  0  0
    6.5379   -7.9534   16.7571 C   0  0  0  0  0  0  0  0  0  0  0  0
    4.1946   -8.7147   26.2056 N   0  0  0  0  0  0  0  0  0  0  0  0
    1.1576   -4.2326   27.3455 He  0  0  0  0  0  0  0  0  0  0  0  0
    5.0499   -6.5386   27.2181 He  0  0  0  0  0  0  0  0  0  0  0  0
    1.3437  -10.1087   17.9528 He  0  0  0  0  0  0  0  0  0  0  0  0
    3.3198   -6.4478   31.5122 He  0  0  0  0  0  0  0  0  0  0  0  0
  1  4  3  0
  1 15  4  0
  1 18  3  0
  1 23  3  0
  2  3  4  0
  2  6  1  0
  2 11  4  0
  2 12  4  0
  2 15  4  0
  2 17  1  0
  2 21  1  0
  3  5  2  0
  3  7  2  0
  3 14  3  0
  3 16  3  0
  3 19  3  0
  3 20  2  0
  3 21  1  0
  4  5  4  0
  4 11  3  0
  4 13  1  0
  4 18  3  0
  4 20  4  0
  5 10  2  0
  5 12  2  0
  5 13  4  0
  5 18  1  0
  5 19  1  0
  5 21  2  0
  6 11  2  0
  6 12  1  0
  6 14  1  0
  7 11  2  0
  7 13  3  0
  7 14  4  0
  7 16  1  0
  7 17  2  0
  7 20  2  0
  7 21  2  0
  7 22  2  0
  7 24  2  0
  8  9  3  0
  8 12  4  0
  8 13  1  0
  8 17  1  0
  8 18  2  0
  8 23  3  0
  9 12  2  0
  9 13  2  0
  9 14  3  0
  9 20  4  0
 10 12  2  0
 10 16  3  0
 10 23  3  0
 10 24  3  0
 11 13  3  0
 11 15  3  0
 11 16  4  0
 11 17  3  0
 11 18  4  0
 11 19  4  0
 11 20  2  0
 11 22  2  0
 12 14  4  0
 12 16  2  0
 12 17  4  0
 12 23  4  0
 13 17  3  0
 13 20  1  0
 13 21  3  0
 13 22  3  0
 13 24  2  0
 14 15  3  0
 14 17  4  0
 14 19  3  0
 14 22  1  0
 14 24  3  0
 15 22  1  0
 16 17  2  0
 16 21  4  0
 16 22  4  0
 16 23  2  0
 17 20  4  0
 17 21  4  0
 18 23  3  0
 19 22  3  0
 20 24  2  0
 21 22  1  0
 21 23  3  0
M  END
$$$$

 Created by Python create_sdf_string function

 28 14  0  0  0  0  0  0  0  0999 V2000
    0.4418  -10.3441   15.9894 C   0  0  0  0  0  0  0  0  0  0  0  0
    5.7065   -8.7926   17.6044 C   0  0  0  0  0  0  0  0  0  0  0  0
    4.3494   -9.4084   17.2048 C   0  0  0  0  0  0  0  0  0  0  0  0
    0.9829   -4.3728   27.3427 C   0  0  0  0  0  0  0  0  0  0  0  0
    7.8249   -7.6758   17.7776 C   0  0  0  0  0  0  0  0  0  0  0  0
    4.7109   -6.7333   27.3319 O   0  0  0  0  0  0  0  0  0  0  0  0
    6.7897   -8.0593   18.1503 C   0  0  0  0  0  0  0  0  0  0  0  0
    4.7283   -9.3206   17.1796 C   0  0  0  0  0  0  0  0  0  0  0  0
   -0.3644   -4.7889   26.4414 O   0  0  0  0  0  0  0  0  0  0  0  0
    2.8246   -9.3460   16.0280 C   0  0  0  0  0  0  0  0  0  0  0  0
    1.6348  -10.3767   17.5245 C   0  0  0  0  0  0  0  0  0  0  0  0
    8.1761   -7.5157   16.9609 C   0  0  0  0  0  0  0  0  0  0  0  0
    2.7870  -10.5886   17.7009 C   0  0  0  0  0  0  0  0  0  0  0  0
    1.4724   -5.9545   26.9020 C   0  0  0  0  0  0  0  0  0  0  0  0
    2.7449   -9.2928   16.1974 C   0  0  0  0  0  0  0  0  0  0  0  0
    3.5462   -5.6823   27.3037 C   0  0  0  0  0  0  0  0  0  0  0  0
    1.1715   -5.7123   27.5818 C   0  0  0  0  0  0  0  0  0  0  0  0
    2.2375   -7.6478   29.1840 O   0  0  0  0  0  0  0  0  0  0  0  0
    2.4301   -6.9138   29.8275 C   0  0  0  0  0  0  0  0  0  0  0  0
    3.0107   -6.6477   30.5110 O   0  0  0  0  0  0  0  0  0  0  0  0
    0.8165   -6.5415   26.8813 C   0  0  0  0  0  0  0  0  0  0  0  0
    0.7498   -4.6347   28.3473 O   0  0  0  0  0  0  0  0  0  0  0  0
    0.9038  -10.2797   16.4457 C   0  0  0  0  0  0  0  0  0  0  0  0
    7.7628   -7.7812   16.6341 C   0  0  0  0  0  0  0  0  0  0  0  0
    3.1960   -6.6707   26.7482 C   0  0  0  0  0  0  0  0  0  0  0  0
    3.2002   -6.8772   29.0597 C   0  0  0  0  0  0  0  0  0  0  0  0
    6.5534   -8.0577   16.7545 C   0  0  0  0  0  0  0  0  0  0  0  0
    3.8410   -7.6629   26.4197 O   0  0  0  0  0  0  0  0  0  0  0  0
  1 23  1  0
  2  7  4  0
  2  8  1  0
  3  8  4  0
  5  7  4  0
 10 15  4  0
 11 13  4  0
 12 24  4  0
 16 25  1  0
 18 19  1  0
 18 26  1  0
 19 20  1  0
 24 27  4  0
 25 28  1  0
M  END
$$$$

 Created by Python create_sdf_string function

 28 41  0  0  0  0  0  0  0  0999 V2000
   -0.0375   -9.8962   15.9113 C   0  0  0  0  0  0  0  0  0  0  0  0
    4.0753   -9.1082   17.7257 F   0  0  0  0  0  0  0  0  0  0  0  0
    5.3625   -6.3536   26.7094 Cl  0  0  0  0  0  0  0  0  0  0  0  0
    4.8021   -9.0671   17.6583 C   0  0  0  0  0  0  0  0  0  0  0  0
   -0.0197   -5.2159   26.8237 C   0  0  0  0  0  0  0  0  0  0  0  0
    7.9732   -7.4484   16.4993 C   0  0  0  0  0  0  0  0  0  0  0  0
    3.7411   -9.7446   15.9277 C   0  0  0  0  0  0  0  0  0  0  0  0
    3.2914   -9.7664   16.1730 C   0  0  0  0  0  0  0  0  0  0  0  0
    2.2598   -5.6715   26.0785 F   0  0  0  0  0  0  0  0  0  0  0  0
    0.7805   -5.1792   28.3350 F   0  0  0  0  0  0  0  0  0  0  0  0
    4.9019   -7.6504   30.8879 P   0  0  0  0  0  0  0  0  0  0  0  0
   -0.6936   -5.6779   28.8975 O   0  0  0  0  0  0  0  0  0  0  0  0
    0.7886  -10.2595   16.6918 C   0  0  0  0  0  0  0  0  0  0  0  0
    7.4220   -8.0412   15.9249 C   0  0  0  0  0  0  0  0  0  0  0  0
    3.7303   -8.0155   29.8979 C   0  0  0  0  0  0  0  0  0  0  0  0
    6.6547   -7.9379   14.9983 O   0  0  0  0  0  0  0  0  0  0  0  0
    5.3761   -9.2739   15.8064 He  0  0  0  0  0  0  0  0  0  0  0  0
    1.4332   -4.8751   27.2391 He  0  0  0  0  0  0  0  0  0  0  0  0
    8.3089   -7.8995   18.0170 He  0  0  0  0  0  0  0  0  0  0  0  0
    8.3823   -8.9683   18.8814 He  0  0  0  0  0  0  0  0  0  0  0  0
    2.9321   -9.9951   15.9539 He  0  0  0  0  0  0  0  0  0  0  0  0
    2.9032  -11.1281   18.3129 He  0  0  0  0  0  0  0  0  0  0  0  0
    2.5741   -6.2792   27.4212 He  0  0  0  0  0  0  0  0  0  0  0  0
    2.5828   -7.4685   29.7435 He  0  0  0  0  0  0  0  0  0  0  0  0
    3.1851   -7.8349   29.0638 He  0  0  0  0  0  0  0  0  0  0  0  0
   -1.0928   -6.0690   26.4666 He  0  0  0  0  0  0  0  0  0  0  0  0
    3.4879   -7.6280   28.2223 He  0  0  0  0  0  0  0  0  0  0  0  0
    5.2592   -7.9005   26.1167 He  0  0  0  0  0  0  0  0  0  0  0  0
  1  3  1  0
  1 10  1  0
  1 11  3  0
  1 13  2  0
  2  4  4  0
  2  6  1  0
  2  7  3  0
  2  9  4  0
  3  6  4  0
  3  7  3  0
  3  9  3  0
  3 13  2  0
  3 15  1  0
  3 16  3  0
  4  7  2  0
  4 10  1  0
  4 11  3  0
  4 12  4  0
  4 15  3  0
  5  6  4  0
  5  9  4  0
  5 11  1  0
  5 14  2  0
  5 16  1  0
  6  8  3  0
  6 10  2  0
  6 14  4  0
  6 15  1  0
  7  8  4  0
  7  9  4  0
  7 10  3  0
  7 12  1  0
  7 13  2  0
  8  9  3  0
  8 11  3  0
  8 16  4  0
  9 15  3  0
 10 13  4  0
 10 16  1  0
 12 13  3  0
 12 14  3  0
M  END
$$$$

 Created by Python create_sdf_string function

 28 15  0  0  0  0  0  0  0  0999 V2000
    0.8776  -10.1166   16.5294 C   0  0  0  0  0  0  0  0  0  0  0  0
    5.6519   -8.7571   16.5860 C   0  0  0  0  0  0  0  0  0  0  0  0
    4.4057   -9.7915   17.8502 C   0  0  0  0  0  0  0  0  0  0  0  0
    1.3888   -5.4124   26.9680 C   0  0  0  0  0  0  0  0  0  0  0  0
    7.8978   -7.8426   17.8942 C   0  0  0  0  0  0  0  0  0  0  0  0
    4.7683   -6.8049   26.9436 C   0  0  0  0  0  0  0  0  0  0  0  0
    7.1661   -8.0695   18.1759 C   0  0  0  0  0  0  0  0  0  0  0  0
    5.6724   -8.9223   17.6094 C   0  0  0  0  0  0  0  0  0  0  0  0
    0.0620   -5.2188   26.7908 C   0  0  0  0  0  0  0  0  0  0  0  0
    2.4618   -9.6415   15.7726 C   0  0  0  0  0  0  0  0  0  0  0  0
    2.4810  -10.3719   17.8066 C   0  0  0  0  0  0  0  0  0  0  0  0
    7.9290   -7.6970   16.7506 C   0  0  0  0  0  0  0  0  0  0  0  0
    3.6034   -9.4729   16.3634 C   0  0  0  0  0  0  0  0  0  0  0  0
    2.7524   -6.4335   27.3759 C   0  0  0  0  0  0  0  0  0  0  0  0
    3.5013   -9.4243   16.0785 C   0  0  0  0  0  0  0  0  0  0  0  0
    2.4073   -5.9932   26.6005 C   0  0  0  0  0  0  0  0  0  0  0  0
    0.7224   -5.9508   28.3206 C   0  0  0  0  0  0  0  0  0  0  0  0
    2.5290   -7.1531   29.6828 C   0  0  0  0  0  0  0  0  0  0  0  0
    3.3281   -7.3775   29.0202 C   0  0  0  0  0  0  0  0  0  0  0  0
    4.3227   -7.8417   30.1937 O   0  0  0  0  0  0  0  0  0  0  0  0
   -0.6532   -5.2721   27.0177 C   0  0  0  0  0  0  0  0  0  0  0  0
   -0.2874   -5.7952   28.5080 O   0  0  0  0  0  0  0  0  0  0  0  0
    0.8497  -10.0730   16.3794 C   0  0  0  0  0  0  0  0  0  0  0  0
    7.2757   -7.8508   16.0199 C   0  0  0  0  0  0  0  0  0  0  0  0
    3.8152   -7.2515   27.8717 C   0  0  0  0  0  0  0  0  0  0  0  0
    3.7592   -7.6681   29.6887 C   0  0  0  0  0  0  0  0  0  0  0  0
    6.4504   -8.0986   15.4742 C   0  0  0  0  0  0  0  0  0  0  0  0
    4.7425   -7.3862   26.3692 C   0  0  0  0  0  0  0  0  0  0  0  0
  1 23  4  0
  2  8  4  0
  3  8  4  0
  3 11  4  0
  5  7  4  0
  6 28  1  0
  7  8  4  0
  9 21  1  0
 10 15  4  0
 12 24  4  0
 13 15  4  0
 14 16  4  0
 17 22  4  0
 20 26  1  0
 24 27  4  0
M  END
$$$$

 Created by Python create_sdf_string function

 28 21  0  0  0  0  0  0  0  0999 V2000
    0.4243  -10.0731   16.3506 C   0  0  0  0  0  0  0  0  0  0  0  0
    4.0127   -9.5782   17.9647 S   0  0  0  0  0  0  0  0  0  0  0  0
    1.0827   -5.5685   26.2208 Cl  0  0  0  0  0  0  0  0  0  0  0  0
    7.8556   -7.6933   17.6586 C   0  0  0  0  0  0  0  0  0  0  0  0
    4.4904   -5.9383   27.2569 P   0  0  0  0  0  0  0  0  0  0  0  0
    2.2704   -7.0528   26.3417 N   0  0  0  0  0  0  0  0  0  0  0  0
    3.2157   -9.2488   16.3401 C   0  0  0  0  0  0  0  0  0  0  0  0
    1.1155   -7.1718   29.6545 I   0  0  0  0  0  0  0  0  0  0  0  0
    4.1788   -8.3274   27.0330 F   0  0  0  0  0  0  0  0  0  0  0  0
    0.6226   -6.4050   27.1376 Br  0  0  0  0  0  0  0  0  0  0  0  0
    0.9047   -9.7893   15.9126 C   0  0  0  0  0  0  0  0  0  0  0  0
    7.2439   -8.1140   15.7637 C   0  0  0  0  0  0  0  0  0  0  0  0
    6.2355  -11.0337   16.0900 He  0  0  0  0  0  0  0  0  0  0  0  0
    7.1996   -9.4662   18.1844 He  0  0  0  0  0  0  0  0  0  0  0  0
    5.5581   -9.1738   17.5948 He  0  0  0  0  0  0  0  0  0  0  0  0
   -2.6944   -4.9648   26.1606 He  0  0  0  0  0  0  0  0  0  0  0  0
    2.7553   -9.3559   16.9457 He  0  0  0  0  0  0  0  0  0  0  0  0
    2.7134  -10.5968   17.5392 He  0  0  0  0  0  0  0  0  0  0  0  0
    6.9863   -7.6487   16.6592 He  0  0  0  0  0  0  0  0  0  0  0  0
    4.2267   -8.7838   14.9899 He  0  0  0  0  0  0  0  0  0  0  0  0
    2.1170   -6.4639   25.6693 He  0  0  0  0  0  0  0  0  0  0  0  0
    3.1444   -7.4703   30.4503 He  0  0  0  0  0  0  0  0  0  0  0  0
    3.0207   -8.5779   30.0404 He  0  0  0  0  0  0  0  0  0  0  0  0
   -0.3915   -4.9058   29.0535 He  0  0  0  0  0  0  0  0  0  0  0  0
    3.1321   -6.4224   27.9896 He  0  0  0  0  0  0  0  0  0  0  0  0
    3.5395   -8.8269   30.5057 He  0  0  0  0  0  0  0  0  0  0  0  0
    6.4175   -7.4621   15.9007 He  0  0  0  0  0  0  0  0  0  0  0  0
    3.9764   -8.2690   25.7894 He  0  0  0  0  0  0  0  0  0  0  0  0
  1  6  2  0
  1  8  2  0
  1 10  1  0
  1 11  4  0
  2  8  2  0
  3  4  4  0
  3  5  4  0
  3  8  2  0
  3  9  1  0
  3 12  4  0
  4  9  4  0
  4 10  2  0
  4 12  1  0
  5  6  3  0
  5 12  1  0
  6  9  2  0
  6 10  2  0
  7  9  4  0
  8 11  3  0
  9 11  2  0
  9 12  2  0
M  END
$$$$

 Created by Python create_sdf_string function

 28 12  0  0  0  0  0  0  0  0999 V2000
    1.0887   -9.8879   16.3713 C   0  0  0  0  0  0  0  0  0  0  0  0
    6.1856   -9.6580   16.5808 C   0  0  0  0  0  0  0  0  0  0  0  0
    4.4986   -9.7817   17.8396 C   0  0  0  0  0  0  0  0  0  0  0  0
    0.4225   -5.5549   26.7140 C   0  0  0  0  0  0  0  0  0  0  0  0
    7.7297   -7.6890   17.5533 C   0  0  0  0  0  0  0  0  0  0  0  0
    3.9644   -6.6304   27.3035 C   0  0  0  0  0  0  0  0  0  0  0  0
    6.6877   -8.5310   17.9190 C   0  0  0  0  0  0  0  0  0  0  0  0
    5.5209   -9.1573   17.4292 C   0  0  0  0  0  0  0  0  0  0  0  0
   -1.0328   -5.0758   26.6775 C   0  0  0  0  0  0  0  0  0  0  0  0
    3.0538   -9.5449   16.9372 C   0  0  0  0  0  0  0  0  0  0  0  0
    2.1976   -9.8864   17.2712 C   0  0  0  0  0  0  0  0  0  0  0  0
    7.3221   -7.4713   16.7118 C   0  0  0  0  0  0  0  0  0  0  0  0
    3.3697   -9.0353   15.7198 C   0  0  0  0  0  0  0  0  0  0  0  0
    2.4020   -6.6329   26.8463 C   0  0  0  0  0  0  0  0  0  0  0  0
    3.1385   -9.1851   16.1796 C   0  0  0  0  0  0  0  0  0  0  0  0
    2.0406   -6.1768   26.4437 C   0  0  0  0  0  0  0  0  0  0  0  0
    1.2867   -6.8791   29.4286 C   0  0  0  0  0  0  0  0  0  0  0  0
    2.8413   -7.6785   30.1144 C   0  0  0  0  0  0  0  0  0  0  0  0
    4.0123   -7.9367   27.2969 C   0  0  0  0  0  0  0  0  0  0  0  0
    3.0154   -8.0593   29.8169 C   0  0  0  0  0  0  0  0  0  0  0  0
    0.6730   -5.9473   27.5457 C   0  0  0  0  0  0  0  0  0  0  0  0
   -0.2578   -5.6459   28.3701 O   0  0  0  0  0  0  0  0  0  0  0  0
    1.1233   -9.9413   16.2147 C   0  0  0  0  0  0  0  0  0  0  0  0
    7.3188   -8.0288   15.8042 C   0  0  0  0  0  0  0  0  0  0  0  0
    2.7655   -6.9847   28.1235 C   0  0  0  0  0  0  0  0  0  0  0  0
    3.3651   -8.3513   30.0723 O   0  0  0  0  0  0  0  0  0  0  0  0
    6.3737   -7.8246   16.0326 C   0  0  0  0  0  0  0  0  0  0  0  0
    3.9322   -7.5981   26.2636 C   0  0  0  0  0  0  0  0  0  0  0  0
  1 23  4  0
  2  8  1  0
  3  8  4  0
  3 10  4  0
  4  9  1  0
  5  7  1  0
  5 12  1  0
 10 15  4  0
 12 24  1  0
 13 15  4  0
 14 16  1  0
 19 28  1  0
M  END
$$$$

 Created by Python create_sdf_string function

 28 64  0  0  0  0  0  0  0  0999 V2000
    1.3638   -9.8410   16.2199 C   0  0  0  0  0  0  0  0  0  0  0  0
    5.4906   -7.9068   16.0249 S   0  0  0  0  0  0  0  0  0  0  0  0
    4.6065  -10.0181   18.2637 C   0  0  0  0  0  0  0  0  0  0  0  0
    3.5368   -9.3029   26.5721 F   0  0  0  0  0  0  0  0  0  0  0  0
    6.7695   -8.3580   18.5506 O   0  0  0  0  0  0  0  0  0  0  0  0
    5.5143   -9.0807   17.3153 N   0  0  0  0  0  0  0  0  0  0  0  0
    5.0384   -8.0015   16.6572 B   0  0  0  0  0  0  0  0  0  0  0  0
    7.4120   -7.9894   15.7615 F   0  0  0  0  0  0  0  0  0  0  0  0
    1.4382   -4.7447   26.8613 C   0  0  0  0  0  0  0  0  0  0  0  0
    2.8417   -9.5753   15.8999 C   0  0  0  0  0  0  0  0  0  0  0  0
    0.7525   -6.0675   28.8692 N   0  0  0  0  0  0  0  0  0  0  0  0
    3.1195   -7.0153   29.7847 C   0  0  0  0  0  0  0  0  0  0  0  0
    4.1575   -8.3991   27.8756 O   0  0  0  0  0  0  0  0  0  0  0  0
    3.7080   -7.4189   30.0684 O   0  0  0  0  0  0  0  0  0  0  0  0
    2.8498   -6.5813   27.1186 Cl  0  0  0  0  0  0  0  0  0  0  0  0
    0.7172  -10.4535   15.9106 S   0  0  0  0  0  0  0  0  0  0  0  0
    7.5218   -7.8709   15.9709 C   0  0  0  0  0  0  0  0  0  0  0  0
    6.2988   -7.2948   16.4103 C   0  0  0  0  0  0  0  0  0  0  0  0
    2.6452   -6.7776   26.8771 N   0  0  0  0  0  0  0  0  0  0  0  0
    0.1947   -6.4974   27.5293 He  0  0  0  0  0  0  0  0  0  0  0  0
    8.0529   -8.0646   17.5714 He  0  0  0  0  0  0  0  0  0  0  0  0
   -0.4285   -5.7240   27.3328 He  0  0  0  0  0  0  0  0  0  0  0  0
    3.7057   -9.9696   17.8039 He  0  0  0  0  0  0  0  0  0  0  0  0
    3.3777   -9.5678   17.1695 He  0  0  0  0  0  0  0  0  0  0  0  0
    1.9688   -6.2243   24.3149 He  0  0  0  0  0  0  0  0  0  0  0  0
   -0.7285   -7.0306   27.2616 He  0  0  0  0  0  0  0  0  0  0  0  0
    2.4447   -6.3031   28.1825 He  0  0  0  0  0  0  0  0  0  0  0  0
    3.5110   -7.6533   30.2993 He  0  0  0  0  0  0  0  0  0  0  0  0
  1  5  1  0
  1  9  1  0
  1 11  2  0
  1 12  4  0
  1 16  4  0
  1 19  1  0
  2  4  3  0
  2  6  1  0
  2 12  1  0
  2 13  4  0
  2 16  4  0
  2 17  3  0
  3  4  3  0
  3  5  2  0
  3  6  4  0
  3  8  1  0
  3  9  2  0
  3 11  3  0
  3 12  1  0
  3 14  3  0
  3 19  2  0
  4  5  1  0
  4  7  3  0
  4  8  2  0
  4 14  4  0
  4 17  1  0
  5  6  1  0
  5 10  2  0
  5 12  4  0
  6  8  4  0
  6 11  1  0
  6 14  2  0
  6 19  1  0
  7  8  2  0
  7 12  1  0
  7 14  4  0
  7 15  1  0
  7 17  4  0
  8 11  3  0
  8 15  4  0
  8 16  2  0
  8 18  1  0
  9 11  4  0
  9 13  4  0
  9 14  1  0
  9 15  3  0
  9 16  4  0
  9 17  4  0
  9 19  3  0
 10 11  4  0
 10 12  2  0
 10 18  1  0
 11 12  3  0
 11 13  4  0
 11 16  4  0
 11 17  2  0
 11 19  2  0
 12 15  1  0
 12 16  1  0
 12 18  2  0
 12 19  2  0
 13 16  3  0
 15 18  4  0
 16 18  3  0
M  END
$$$$

 Created by Python create_sdf_string function

 28 10  0  0  0  0  0  0  0  0999 V2000
    1.5254   -9.8492   16.6094 C   0  0  0  0  0  0  0  0  0  0  0  0
    5.2596   -7.8890   15.9896 C   0  0  0  0  0  0  0  0  0  0  0  0
    4.5135   -9.7669   17.9436 C   0  0  0  0  0  0  0  0  0  0  0  0
    0.4972   -6.1344   27.8272 C   0  0  0  0  0  0  0  0  0  0  0  0
    7.9346   -7.6422   17.7233 C   0  0  0  0  0  0  0  0  0  0  0  0
    3.5921   -8.2912   26.9105 C   0  0  0  0  0  0  0  0  0  0  0  0
    6.6957   -8.3027   18.2856 C   0  0  0  0  0  0  0  0  0  0  0  0
    5.5274   -8.7155   17.4456 C   0  0  0  0  0  0  0  0  0  0  0  0
   -0.3592   -5.4641   27.3425 C   0  0  0  0  0  0  0  0  0  0  0  0
    4.7808   -8.3019   16.3141 C   0  0  0  0  0  0  0  0  0  0  0  0
    3.3239  -10.2042   17.6722 C   0  0  0  0  0  0  0  0  0  0  0  0
    7.5368   -7.2697   16.3520 C   0  0  0  0  0  0  0  0  0  0  0  0
    2.8842   -9.3260   16.5614 C   0  0  0  0  0  0  0  0  0  0  0  0
    1.2554   -5.0493   26.8109 C   0  0  0  0  0  0  0  0  0  0  0  0
    2.9125   -9.1342   16.0952 C   0  0  0  0  0  0  0  0  0  0  0  0
    2.4785   -6.1691   25.8787 O   0  0  0  0  0  0  0  0  0  0  0  0
    0.8658   -6.1578   28.6789 C   0  0  0  0  0  0  0  0  0  0  0  0
    3.0107   -7.1507   29.6530 C   0  0  0  0  0  0  0  0  0  0  0  0
    4.1339   -8.3295   27.9978 O   0  0  0  0  0  0  0  0  0  0  0  0
    3.7005   -7.4880   29.9782 O   0  0  0  0  0  0  0  0  0  0  0  0
    2.5918   -6.6238   27.4360 C   0  0  0  0  0  0  0  0  0  0  0  0
   -0.1951   -6.0141   27.6628 C   0  0  0  0  0  0  0  0  0  0  0  0
    0.9763   -9.9351   16.2937 C   0  0  0  0  0  0  0  0  0  0  0  0
    7.2553   -7.2294   16.3031 C   0  0  0  0  0  0  0  0  0  0  0  0
    2.5749   -6.8604   28.2211 C   0  0  0  0  0  0  0  0  0  0  0  0
    3.4353   -7.5162   30.1218 C   0  0  0  0  0  0  0  0  0  0  0  0
    7.0410   -7.2312   16.0744 C   0  0  0  0  0  0  0  0  0  0  0  0
    2.4774   -6.6907   26.9943 C   0  0  0  0  0  0  0  0  0  0  0  0
  1 23  4  0
  2 10  4  0
  3  8  4  0
  3 11  4  0
  5  7  4  0
  9 22  1  0
 12 27  1  0
 13 15  4  0
 18 26  1  0
 24 27  4  0
M  END
$$$$

 Created by Python create_sdf_string function

 28 48  0  0  0  0  0  0  0  0999 V2000
    2.2101   -9.4297   16.6130 C   0  0  0  0  0  0  0  0  0  0  0  0
    5.0151   -9.8045   17.7865 C   0  0  0  0  0  0  0  0  0  0  0  0
    1.9517   -5.4060   28.1421 O   0  0  0  0  0  0  0  0  0  0  0  0
    8.1572   -7.8494   17.5323 C   0  0  0  0  0  0  0  0  0  0  0  0
    7.0466   -7.4817   18.4234 Cl  0  0  0  0  0  0  0  0  0  0  0  0
    5.9813   -8.8528   18.6227 C   0  0  0  0  0  0  0  0  0  0  0  0
   -0.4355   -6.2501   28.0062 F   0  0  0  0  0  0  0  0  0  0  0  0
    5.5837   -7.9592   17.3439 Se  0  0  0  0  0  0  0  0  0  0  0  0
    5.7840   -8.0356   15.6336 F   0  0  0  0  0  0  0  0  0  0  0  0
    4.1838   -8.0870   16.7738 C   0  0  0  0  0  0  0  0  0  0  0  0
    2.9274   -8.6694   15.7505 C   0  0  0  0  0  0  0  0  0  0  0  0
    1.0573   -4.5712   27.8251 C   0  0  0  0  0  0  0  0  0  0  0  0
    3.4202   -7.6185   30.1686 C   0  0  0  0  0  0  0  0  0  0  0  0
    4.5243   -6.9620   28.8368 F   0  0  0  0  0  0  0  0  0  0  0  0
    0.9988   -9.7197   16.0869 C   0  0  0  0  0  0  0  0  0  0  0  0
    7.2135   -7.6901   15.8760 N   0  0  0  0  0  0  0  0  0  0  0  0
    4.3470   -5.6647   27.7224 F   0  0  0  0  0  0  0  0  0  0  0  0
    4.0540   -7.2823   30.3401 P   0  0  0  0  0  0  0  0  0  0  0  0
    4.7266   -7.4001   15.4105 He  0  0  0  0  0  0  0  0  0  0  0  0
    4.4116   -8.5894   27.1195 He  0  0  0  0  0  0  0  0  0  0  0  0
    2.0534  -11.6383   16.7655 He  0  0  0  0  0  0  0  0  0  0  0  0
    0.3284   -4.5212   27.4770 He  0  0  0  0  0  0  0  0  0  0  0  0
    4.2275   -5.7168   25.8736 He  0  0  0  0  0  0  0  0  0  0  0  0
    4.2512   -8.3270   29.7755 He  0  0  0  0  0  0  0  0  0  0  0  0
    2.7061   -5.4275   28.4658 He  0  0  0  0  0  0  0  0  0  0  0  0
   -0.1144   -6.3895   27.2957 He  0  0  0  0  0  0  0  0  0  0  0  0
    6.6186   -7.7283   16.5728 He  0  0  0  0  0  0  0  0  0  0  0  0
    3.6142   -5.8155   27.2528 He  0  0  0  0  0  0  0  0  0  0  0  0
  1  5  2  0
  1  8  4  0
  1 10  2  0
  1 13  1  0
  1 15  2  0
  2 12  4  0
  2 13  3  0
  2 15  3  0
  2 17  3  0
  3  4  3  0
  3  5  1  0
  3  6  1  0
  3 10  1  0
  3 14  1  0
  3 15  2  0
  3 18  2  0
  4  9  3  0
  4 10  3  0
  4 14  4  0
  4 17  3  0
  5 13  2  0
  5 17  1  0
  5 18  1  0
  6  7  1  0
  6 11  1  0
  6 14  4  0
  6 16  4  0
  6 17  4  0
  6 18  2  0
  7 10  3  0
  7 11  3  0
  7 13  4  0
  8 13  4  0
  8 16  1  0
 10 12  4  0
 10 14  2  0
 10 16  3  0
 10 17  2  0
 11 12  3  0
 11 13  1  0
 11 14  4  0
 12 13  3  0
 13 15  2  0
 13 18  1  0
 14 15  3  0
 14 18  4  0
 15 18  4  0
 16 18  3  0
M  END
$$$$

 Created by Python create_sdf_string function

 28 15  0  0  0  0  0  0  0  0999 V2000
    1.9871   -9.7971   16.7297 C   0  0  0  0  0  0  0  0  0  0  0  0
    4.5789   -7.6090   15.4915 C   0  0  0  0  0  0  0  0  0  0  0  0
    4.3991   -9.6438   17.7068 C   0  0  0  0  0  0  0  0  0  0  0  0
    2.0324   -5.8050   28.0294 C   0  0  0  0  0  0  0  0  0  0  0  0
    8.0104   -7.4534   17.6831 C   0  0  0  0  0  0  0  0  0  0  0  0
    4.4974   -7.8838   27.2463 C   0  0  0  0  0  0  0  0  0  0  0  0
    7.3959   -7.8265   17.9966 C   0  0  0  0  0  0  0  0  0  0  0  0
    6.0307   -8.5890   18.2731 C   0  0  0  0  0  0  0  0  0  0  0  0
   -0.1883   -5.8199   27.7986 C   0  0  0  0  0  0  0  0  0  0  0  0
    5.4842   -8.4879   17.3103 C   0  0  0  0  0  0  0  0  0  0  0  0
    2.1515  -10.5357   17.2778 C   0  0  0  0  0  0  0  0  0  0  0  0
    5.4762   -7.4059   15.5166 C   0  0  0  0  0  0  0  0  0  0  0  0
    3.7642   -8.8099   16.5285 C   0  0  0  0  0  0  0  0  0  0  0  0
    0.2756   -4.6839   27.4039 C   0  0  0  0  0  0  0  0  0  0  0  0
    2.8963   -8.5518   15.8956 C   0  0  0  0  0  0  0  0  0  0  0  0
    4.1187   -6.6007   26.4944 C   0  0  0  0  0  0  0  0  0  0  0  0
    0.9649   -4.8154   27.5104 C   0  0  0  0  0  0  0  0  0  0  0  0
    3.6054   -7.4716   30.0014 C   0  0  0  0  0  0  0  0  0  0  0  0
    4.2956   -7.1855   28.8595 C   0  0  0  0  0  0  0  0  0  0  0  0
    4.2128   -8.2880   29.7417 O   0  0  0  0  0  0  0  0  0  0  0  0
    2.1455   -5.7641   28.2431 C   0  0  0  0  0  0  0  0  0  0  0  0
    0.4351   -6.0598   27.5161 C   0  0  0  0  0  0  0  0  0  0  0  0
    1.4485   -9.4970   16.2848 C   0  0  0  0  0  0  0  0  0  0  0  0
    7.0777   -7.2190   16.0774 C   0  0  0  0  0  0  0  0  0  0  0  0
    4.0795   -6.1257   27.4949 C   0  0  0  0  0  0  0  0  0  0  0  0
    3.7598   -7.1732   30.1335 C   0  0  0  0  0  0  0  0  0  0  0  0
    6.7667   -7.3870   16.3951 C   0  0  0  0  0  0  0  0  0  0  0  0
    3.4042   -6.2516   27.4008 C   0  0  0  0  0  0  0  0  0  0  0  0
  1 11  1  0
  1 23  4  0
  2 12  4  0
  3 10  4  0
  4 21  4  0
  5  7  4  0
  7  8  4  0
  8 10  4  0
  9 22  4  0
 13 15  4  0
 14 17  4  0
 16 25  1  0
 18 26  1  0
 24 27  4  0
 25 28  1  0
M  END
$$$$

 Created by Python create_sdf_string function

 28 33  0  0  0  0  0  0  0  0999 V2000
    6.7973   -6.7893   16.8076 N   0  0  0  0  0  0  0  0  0  0  0  0
    8.1177   -7.3678   17.4150 C   0  0  0  0  0  0  0  0  0  0  0  0
    5.2291   -7.9340   25.4868 C   0  0  0  0  0  0  0  0  0  0  0  0
    6.0196   -7.7280   18.1248 F   0  0  0  0  0  0  0  0  0  0  0  0
    6.4895   -8.4515   18.1641 C   0  0  0  0  0  0  0  0  0  0  0  0
    7.6927   -8.5744   14.8611 P   0  0  0  0  0  0  0  0  0  0  0  0
    1.8555   -7.0222   16.3085 C   0  0  0  0  0  0  0  0  0  0  0  0
    1.2511   -4.7737   27.7613 F   0  0  0  0  0  0  0  0  0  0  0  0
    0.4824   -3.8527   28.3010 F   0  0  0  0  0  0  0  0  0  0  0  0
    4.3583   -8.3175   28.4123 O   0  0  0  0  0  0  0  0  0  0  0  0
    1.5613   -9.4212   15.8614 C   0  0  0  0  0  0  0  0  0  0  0  0
    6.8291   -7.1244   16.2653 C   0  0  0  0  0  0  0  0  0  0  0  0
    6.5310   -8.6877   16.3702 C   0  0  0  0  0  0  0  0  0  0  0  0
    4.4478   -6.4319   28.2492 C   0  0  0  0  0  0  0  0  0  0  0  0
    1.9211   -9.8406   17.1890 He  0  0  0  0  0  0  0  0  0  0  0  0
    4.2385   -9.6378   17.7371 He  0  0  0  0  0  0  0  0  0  0  0  0
    2.9916   -5.8515   27.8771 He  0  0  0  0  0  0  0  0  0  0  0  0
    0.1408   -5.6081   27.7426 He  0  0  0  0  0  0  0  0  0  0  0  0
    6.1167   -8.0676   17.4522 He  0  0  0  0  0  0  0  0  0  0  0  0
    2.1220  -11.1983   16.5272 He  0  0  0  0  0  0  0  0  0  0  0  0
    2.9752   -8.4011   15.5464 He  0  0  0  0  0  0  0  0  0  0  0  0
    5.5990   -6.0886   26.1182 He  0  0  0  0  0  0  0  0  0  0  0  0
    3.6928   -6.1586   28.7919 He  0  0  0  0  0  0  0  0  0  0  0  0
    3.9900   -7.9579   28.7453 He  0  0  0  0  0  0  0  0  0  0  0  0
    0.7329   -5.8512   28.1376 He  0  0  0  0  0  0  0  0  0  0  0  0
   -1.4172   -6.8138   25.8486 He  0  0  0  0  0  0  0  0  0  0  0  0
    3.2234   -6.5852   28.2207 He  0  0  0  0  0  0  0  0  0  0  0  0
    3.9321   -7.6440   28.3827 He  0  0  0  0  0  0  0  0  0  0  0  0
  1  6  4  0
  1  7  2  0
  1  9  3  0
  2  3  1  0
  2  6  3  0
  2  9  3  0
  2 10  3  0
  3  4  3  0
  3  7  2  0
  3  9  1  0
  3 11  3  0
  3 14  3  0
  4  5  3  0
  4  6  3  0
  4  8  2  0
  4  9  4  0
  4 12  3  0
  4 13  3  0
  5  8  1  0
  5  9  4  0
  5 10  2  0
  5 13  1  0
  6 11  3  0
  6 14  1  0
  7 10  2  0
  7 11  2  0
  7 14  4  0
  8 10  3  0
  8 11  2  0
  8 12  2  0
  8 13  1  0
  8 14  4  0
  9 11  4  0
M  END
$$$$

 Created by Python create_sdf_string function

 28  9  0  0  0  0  0  0  0  0999 V2000
    2.0453   -9.8507   16.7919 C   0  0  0  0  0  0  0  0  0  0  0  0
    7.3746   -6.9611   16.8343 N   0  0  0  0  0  0  0  0  0  0  0  0
    4.0226   -9.3485   17.2918 C   0  0  0  0  0  0  0  0  0  0  0  0
    2.2706   -5.9721   27.7232 C   0  0  0  0  0  0  0  0  0  0  0  0
    8.1512   -7.0666   17.3201 C   0  0  0  0  0  0  0  0  0  0  0  0
    5.0626   -7.6221   26.2223 C   0  0  0  0  0  0  0  0  0  0  0  0
    5.8846   -8.2671   18.0426 C   0  0  0  0  0  0  0  0  0  0  0  0
    6.1284   -8.2678   18.1340 C   0  0  0  0  0  0  0  0  0  0  0  0
    0.0674   -5.5987   27.5578 C   0  0  0  0  0  0  0  0  0  0  0  0
    5.6237   -8.1494   17.1062 C   0  0  0  0  0  0  0  0  0  0  0  0
    2.3598  -10.1335   16.9462 C   0  0  0  0  0  0  0  0  0  0  0  0
    7.5165   -7.7384   15.2581 C   0  0  0  0  0  0  0  0  0  0  0  0
    2.6246   -7.8649   16.1745 C   0  0  0  0  0  0  0  0  0  0  0  0
    1.1297   -4.9687   27.6242 C   0  0  0  0  0  0  0  0  0  0  0  0
    3.5383   -8.1433   16.3717 C   0  0  0  0  0  0  0  0  0  0  0  0
    5.3635   -6.5273   26.7707 C   0  0  0  0  0  0  0  0  0  0  0  0
    0.4748   -4.3601   27.8690 C   0  0  0  0  0  0  0  0  0  0  0  0
    3.6529   -6.2192   28.3728 C   0  0  0  0  0  0  0  0  0  0  0  0
    3.9065   -7.7544   28.4359 C   0  0  0  0  0  0  0  0  0  0  0  0
    4.4885   -8.4299   27.9075 C   0  0  0  0  0  0  0  0  0  0  0  0
    0.9127   -5.7593   27.9087 C   0  0  0  0  0  0  0  0  0  0  0  0
   -0.3789   -5.5999   26.6735 C   0  0  0  0  0  0  0  0  0  0  0  0
    1.5555   -9.2927   16.4847 C   0  0  0  0  0  0  0  0  0  0  0  0
    7.0012   -7.1795   16.0704 C   0  0  0  0  0  0  0  0  0  0  0  0
    2.9051   -6.3705   28.0439 C   0  0  0  0  0  0  0  0  0  0  0  0
    4.0040   -7.6017   28.0597 C   0  0  0  0  0  0  0  0  0  0  0  0
    6.3088   -8.1894   16.4131 C   0  0  0  0  0  0  0  0  0  0  0  0
    4.5568   -6.5035   27.7007 C   0  0  0  0  0  0  0  0  0  0  0  0
  1 11  4  0
  1 23  4  0
  3 15  4  0
  6 16  1  0
  7  8  4  0
  9 22  1  0
 11 23  4  0
 13 15  4  0
 16 28  1  0
M  END
$$$$

 Created by Python create_sdf_string function

 28 70  0  0  0  0  0  0  0  0999 V2000
    1.7455   -9.8422   16.9765 C   0  0  0  0  0  0  0  0  0  0  0  0
    6.7470   -7.9649   18.4253 F   0  0  0  0  0  0  0  0  0  0  0  0
    4.2785   -8.9552   17.5071 F   0  0  0  0  0  0  0  0  0  0  0  0
    2.0741   -5.8275   26.9818 C   0  0  0  0  0  0  0  0  0  0  0  0
    8.6817   -6.9052   17.3713 C   0  0  0  0  0  0  0  0  0  0  0  0
    6.8192   -8.4412   18.3239 P   0  0  0  0  0  0  0  0  0  0  0  0
    6.3919   -7.2366   18.5012 C   0  0  0  0  0  0  0  0  0  0  0  0
    3.1897   -8.3803   17.4363 F   0  0  0  0  0  0  0  0  0  0  0  0
    2.9553   -7.3723   16.3501 P   0  0  0  0  0  0  0  0  0  0  0  0
    2.8177   -6.3879   16.2200 B   0  0  0  0  0  0  0  0  0  0  0  0
    1.6933   -4.2965   27.2500 C   0  0  0  0  0  0  0  0  0  0  0  0
    3.0759   -7.8047   16.7219 C   0  0  0  0  0  0  0  0  0  0  0  0
    0.7317   -3.8730   26.5570 N   0  0  0  0  0  0  0  0  0  0  0  0
    3.3352   -5.9036   28.1576 O   0  0  0  0  0  0  0  0  0  0  0  0
    3.8170   -9.8897   27.9618 C   0  0  0  0  0  0  0  0  0  0  0  0
    0.8528   -5.6479   25.5526 O   0  0  0  0  0  0  0  0  0  0  0  0
   -1.6003   -4.9860   27.1450 Cl  0  0  0  0  0  0  0  0  0  0  0  0
    7.8871   -7.2928   15.7070 C   0  0  0  0  0  0  0  0  0  0  0  0
    2.1526   -6.4564   28.0826 F   0  0  0  0  0  0  0  0  0  0  0  0
    3.7859   -7.9349   29.2763 N   0  0  0  0  0  0  0  0  0  0  0  0
    5.5668   -7.4721   17.1886 C   0  0  0  0  0  0  0  0  0  0  0  0
    5.3312   -8.1379   27.6243 O   0  0  0  0  0  0  0  0  0  0  0  0
    5.1365   -7.8594   25.2867 He  0  0  0  0  0  0  0  0  0  0  0  0
    0.7650   -5.4156   25.7545 He  0  0  0  0  0  0  0  0  0  0  0  0
    6.7401   -6.8898   13.8553 He  0  0  0  0  0  0  0  0  0  0  0  0
    5.7956   -6.6577   26.9183 He  0  0  0  0  0  0  0  0  0  0  0  0
    4.4894   -9.0596   27.4002 He  0  0  0  0  0  0  0  0  0  0  0  0
    1.2161   -8.9247   16.4749 He  0  0  0  0  0  0  0  0  0  0  0  0
  1  4  1  0
  2  4  1  0
  2  5  2  0
  2  7  1  0
  2  9  4  0
  2 18  4  0
  2 22  4  0
  3  8  2  0
  3 12  4  0
  3 14  2  0
  4  8  4  0
  4  9  3  0
  4 11  2  0
  4 14  1  0
  4 16  1  0
  4 17  3  0
  4 20  2  0
  4 21  1  0
  5  9  2  0
  5 16  3  0
  5 20  4  0
  5 21  1  0
  6 12  3  0
  6 14  2  0
  6 18  1  0
  6 21  1  0
  6 22  2  0
  7  9  4  0
  7 10  2  0
  7 11  2  0
  7 15  3  0
  7 16  1  0
  7 17  3  0
  7 20  4  0
  8 14  4  0
  8 15  4  0
  8 17  2  0
  8 19  4  0
  8 21  1  0
  9 11  2  0
  9 16  1  0
 10 11  2  0
 10 12  4  0
 10 13  4  0
 10 14  2  0
 10 16  1  0
 10 21  4  0
 10 22  4  0
 11 15  4  0
 11 19  1  0
 11 21  1  0
 12 15  4  0
 12 16  4  0
 12 21  4  0
 12 22  2  0
 13 17  2  0
 13 20  2  0
 14 17  4  0
 14 18  3  0
 14 19  2  0
 14 20  2  0
 15 16  2  0
 15 18  2  0
 17 18  2  0
 18 20  2  0
 19 20  2  0
 19 22  1  0
 20 21  2  0
 20 22  3  0
 21 22  1  0
M  END
$$$$

 Created by Python create_sdf_string function

 28 12  0  0  0  0  0  0  0  0999 V2000
    1.6281   -9.1965   16.7291 C   0  0  0  0  0  0  0  0  0  0  0  0
    7.0651   -7.5572   17.6302 C   0  0  0  0  0  0  0  0  0  0  0  0
    4.4511   -8.9985   17.4617 C   0  0  0  0  0  0  0  0  0  0  0  0
    2.2476   -5.9588   27.1018 C   0  0  0  0  0  0  0  0  0  0  0  0
    8.3231   -7.1005   17.2335 C   0  0  0  0  0  0  0  0  0  0  0  0
    4.8248   -7.5424   26.0238 C   0  0  0  0  0  0  0  0  0  0  0  0
    6.7828   -7.7925   17.7623 C   0  0  0  0  0  0  0  0  0  0  0  0
    6.4397   -7.7452   17.9649 C   0  0  0  0  0  0  0  0  0  0  0  0
    0.6008   -5.6285   26.6849 C   0  0  0  0  0  0  0  0  0  0  0  0
    3.2119   -9.3257   17.1709 C   0  0  0  0  0  0  0  0  0  0  0  0
    2.6610   -7.5039   16.0771 C   0  0  0  0  0  0  0  0  0  0  0  0
    6.6467   -6.9311   15.2990 C   0  0  0  0  0  0  0  0  0  0  0  0
    3.0440   -7.3721   16.0763 C   0  0  0  0  0  0  0  0  0  0  0  0
    1.5409   -4.5558   27.3276 C   0  0  0  0  0  0  0  0  0  0  0  0
    3.6168   -7.9669   16.5734 C   0  0  0  0  0  0  0  0  0  0  0  0
    5.2030   -6.9941   26.7835 C   0  0  0  0  0  0  0  0  0  0  0  0
    0.4267   -4.1197   26.9571 C   0  0  0  0  0  0  0  0  0  0  0  0
    3.3588   -6.1547   27.8141 C   0  0  0  0  0  0  0  0  0  0  0  0
    4.4792   -8.7721   27.4532 C   0  0  0  0  0  0  0  0  0  0  0  0
    4.0911   -9.1705   27.6042 C   0  0  0  0  0  0  0  0  0  0  0  0
    0.7462   -5.8939   26.6534 C   0  0  0  0  0  0  0  0  0  0  0  0
   -0.8245   -4.9325   26.8917 O   0  0  0  0  0  0  0  0  0  0  0  0
    1.3929   -8.8697   16.4248 C   0  0  0  0  0  0  0  0  0  0  0  0
    7.3009   -7.0017   15.9148 C   0  0  0  0  0  0  0  0  0  0  0  0
    2.5729   -6.4041   27.7107 C   0  0  0  0  0  0  0  0  0  0  0  0
    3.7134   -7.9090   28.3573 C   0  0  0  0  0  0  0  0  0  0  0  0
    5.5348   -7.7593   16.9224 C   0  0  0  0  0  0  0  0  0  0  0  0
    5.2837   -8.0173   27.3413 C   0  0  0  0  0  0  0  0  0  0  0  0
  1 10  4  0
  1 23  4  0
  3 10  4  0
  4 18  1  0
  6 16  4  0
  7  8  4  0
  9 21  1  0
 11 13  4  0
 12 24  4  0
 13 15  4  0
 14 17  1  0
 19 20  1  0
M  END
$$$$

 Created by Python create_sdf_string function

 28 50  0  0  0  0  0  0  0  0999 V2000
    1.7880   -9.6677   16.6546 C   0  0  0  0  0  0  0  0  0  0  0  0
    6.8035   -6.8835   18.8493 F   0  0  0  0  0  0  0  0  0  0  0  0
    4.3979   -8.9868   17.1824 C   0  0  0  0  0  0  0  0  0  0  0  0
    1.5840   -6.2524   26.6550 P   0  0  0  0  0  0  0  0  0  0  0  0
    8.5171   -7.0506   17.5549 C   0  0  0  0  0  0  0  0  0  0  0  0
    3.8300   -8.4485   26.6826 I   0  0  0  0  0  0  0  0  0  0  0  0
    7.2129   -8.1554   17.6494 O   0  0  0  0  0  0  0  0  0  0  0  0
    7.1782   -7.9220   17.8238 C   0  0  0  0  0  0  0  0  0  0  0  0
    6.9743   -6.2251   15.3620 C   0  0  0  0  0  0  0  0  0  0  0  0
    4.2941   -6.0587   16.1637 N   0  0  0  0  0  0  0  0  0  0  0  0
    3.5685   -8.2187   16.8144 S   0  0  0  0  0  0  0  0  0  0  0  0
    6.2025   -6.1419   25.9010 O   0  0  0  0  0  0  0  0  0  0  0  0
    1.2634   -5.3919   27.3313 C   0  0  0  0  0  0  0  0  0  0  0  0
    4.6898   -6.3848   27.9763 Br  0  0  0  0  0  0  0  0  0  0  0  0
   -0.0332   -5.9382   25.6767 Cl  0  0  0  0  0  0  0  0  0  0  0  0
   -0.4293   -5.8689   27.7309 O   0  0  0  0  0  0  0  0  0  0  0  0
    1.1427   -8.8164   16.2672 C   0  0  0  0  0  0  0  0  0  0  0  0
    7.0883   -6.6008   15.9072 C   0  0  0  0  0  0  0  0  0  0  0  0
    3.9565   -6.3854   28.2465 S   0  0  0  0  0  0  0  0  0  0  0  0
    4.7713   -9.5204   29.2490 C   0  0  0  0  0  0  0  0  0  0  0  0
    2.9410   -5.2751   27.9399 He  0  0  0  0  0  0  0  0  0  0  0  0
    3.5316  -10.0322   17.6819 He  0  0  0  0  0  0  0  0  0  0  0  0
    3.1719   -8.0828   15.0096 He  0  0  0  0  0  0  0  0  0  0  0  0
    0.5450   -4.9459   26.5959 He  0  0  0  0  0  0  0  0  0  0  0  0
    4.5436   -8.1114   28.3033 He  0  0  0  0  0  0  0  0  0  0  0  0
    4.9507   -9.1462   26.9569 He  0  0  0  0  0  0  0  0  0  0  0  0
    5.4416   -7.1080   28.9091 He  0  0  0  0  0  0  0  0  0  0  0  0
    3.6006   -6.7651   16.8403 He  0  0  0  0  0  0  0  0  0  0  0  0
  1 14  3  0
  1 16  4  0
  2  5  1  0
  2 11  1  0
  2 13  3  0
  2 14  4  0
  2 15  4  0
  2 17  2  0
  3 10  4  0
  3 14  3  0
  3 15  1  0
  3 18  1  0
  3 19  1  0
  4 11  4  0
  4 14  3  0
  4 18  3  0
  4 20  1  0
  5 10  1  0
  5 14  3  0
  5 19  4  0
  6 15  3  0
  6 18  1  0
  6 19  2  0
  7 17  4  0
  7 18  2  0
  8 10  4  0
  8 11  2  0
  8 16  1  0
  8 18  4  0
  9 13  3  0
  9 17  1  0
  9 18  4  0
 10 11  1  0
 10 17  3  0
 10 20  4  0
 11 14  2  0
 11 15  2  0
 11 16  3  0
 11 19  2  0
 12 13  4  0
 12 14  4  0
 12 16  4  0
 12 18  2  0
 13 15  3  0
 13 19  2  0
 13 20  2  0
 14 15  2  0
 14 16  3  0
 17 20  2  0
 18 19  2  0
M  END
$$$$

 Created by Python create_sdf_string function

 28 13  0  0  0  0  0  0  0  0999 V2000
    1.7869   -9.7510   16.9653 C   0  0  0  0  0  0  0  0  0  0  0  0
    7.1600   -7.5986   18.0478 C   0  0  0  0  0  0  0  0  0  0  0  0
    4.5023   -9.1272   17.5371 C   0  0  0  0  0  0  0  0  0  0  0  0
    1.9306   -6.3180   26.7587 C   0  0  0  0  0  0  0  0  0  0  0  0
    8.3663   -6.7866   17.4638 C   0  0  0  0  0  0  0  0  0  0  0  0
    3.7144   -7.9883   26.7330 C   0  0  0  0  0  0  0  0  0  0  0  0
    7.2640   -7.6749   17.9663 C   0  0  0  0  0  0  0  0  0  0  0  0
    6.2624   -7.5195   17.2036 C   0  0  0  0  0  0  0  0  0  0  0  0
    2.8997   -5.5186   27.6214 C   0  0  0  0  0  0  0  0  0  0  0  0
    3.0084   -9.9380   17.4220 C   0  0  0  0  0  0  0  0  0  0  0  0
    2.4725   -7.8181   15.8138 C   0  0  0  0  0  0  0  0  0  0  0  0
    7.5046   -6.3825   16.0856 C   0  0  0  0  0  0  0  0  0  0  0  0
    4.8501   -7.0251   15.9039 N   0  0  0  0  0  0  0  0  0  0  0  0
    0.6160   -5.0190   27.0756 C   0  0  0  0  0  0  0  0  0  0  0  0
    4.1781   -7.8724   16.5748 C   0  0  0  0  0  0  0  0  0  0  0  0
    5.4973   -6.9282   26.7365 C   0  0  0  0  0  0  0  0  0  0  0  0
    1.2206   -5.4364   27.2650 C   0  0  0  0  0  0  0  0  0  0  0  0
    4.7618   -6.7688   27.7628 C   0  0  0  0  0  0  0  0  0  0  0  0
    4.5432   -7.9600   27.8231 C   0  0  0  0  0  0  0  0  0  0  0  0
    5.0870   -8.6763   27.1058 C   0  0  0  0  0  0  0  0  0  0  0  0
    0.3143   -5.8711   26.3949 C   0  0  0  0  0  0  0  0  0  0  0  0
   -0.1683   -5.7658   27.8142 O   0  0  0  0  0  0  0  0  0  0  0  0
    1.4786   -8.8764   16.2320 C   0  0  0  0  0  0  0  0  0  0  0  0
    7.0263   -6.6097   15.9458 C   0  0  0  0  0  0  0  0  0  0  0  0
    3.7351   -6.1922   27.8164 C   0  0  0  0  0  0  0  0  0  0  0  0
    5.4289   -7.6366   28.8181 C   0  0  0  0  0  0  0  0  0  0  0  0
    3.8944   -8.0106   16.5867 C   0  0  0  0  0  0  0  0  0  0  0  0
    5.1305   -8.9703   28.7877 C   0  0  0  0  0  0  0  0  0  0  0  0
  1 10  4  0
  1 23  4  0
  2  5  4  0
  2  7  4  0
  3 10  4  0
  5  7  4  0
  5 12  4  0
  9 25  1  0
 11 23  4  0
 12 24  4  0
 14 17  1  0
 15 27  1  0
 26 28  4  0
M  END
$$$$

 Created by Python create_sdf_string function

 28 47  0  0  0  0  0  0  0  0999 V2000
    6.5766   -6.8185   16.9888 N   0  0  0  0  0  0  0  0  0  0  0  0
    4.2413   -9.1480   17.5424 C   0  0  0  0  0  0  0  0  0  0  0  0
    8.4958   -6.7139   17.6785 C   0  0  0  0  0  0  0  0  0  0  0  0
    3.9941   -5.4650   27.1037 O   0  0  0  0  0  0  0  0  0  0  0  0
    2.7693   -9.2571   16.7721 C   0  0  0  0  0  0  0  0  0  0  0  0
    4.8550   -7.2499   15.5664 Br  0  0  0  0  0  0  0  0  0  0  0  0
    0.2452   -7.2385   26.9022 C   0  0  0  0  0  0  0  0  0  0  0  0
    3.8711   -8.0884   16.4692 Se  0  0  0  0  0  0  0  0  0  0  0  0
    4.6461   -6.3977   26.2294 F   0  0  0  0  0  0  0  0  0  0  0  0
    1.4597   -6.6457   26.8489 C   0  0  0  0  0  0  0  0  0  0  0  0
    4.2628   -6.3962   29.0117 C   0  0  0  0  0  0  0  0  0  0  0  0
    5.1741   -8.0387   28.6448 F   0  0  0  0  0  0  0  0  0  0  0  0
   -0.0633   -6.4769   27.5608 N   0  0  0  0  0  0  0  0  0  0  0  0
   -1.0061   -4.5309   27.2003 O   0  0  0  0  0  0  0  0  0  0  0  0
    1.5171   -9.0160   16.1821 F   0  0  0  0  0  0  0  0  0  0  0  0
    6.7760   -6.4994   15.7787 C   0  0  0  0  0  0  0  0  0  0  0  0
    5.5404   -8.1691   27.7574 C   0  0  0  0  0  0  0  0  0  0  0  0
    3.0835   -7.3366   15.6642 S   0  0  0  0  0  0  0  0  0  0  0  0
    5.1299   -9.4234   26.8724 O   0  0  0  0  0  0  0  0  0  0  0  0
    1.5587   -9.6899   17.0527 He  0  0  0  0  0  0  0  0  0  0  0  0
    0.6230   -4.6514   27.3976 He  0  0  0  0  0  0  0  0  0  0  0  0
    3.6700   -9.5434   28.1472 He  0  0  0  0  0  0  0  0  0  0  0  0
    7.1999   -6.6892   17.6968 He  0  0  0  0  0  0  0  0  0  0  0  0
    6.1961   -7.1524   17.3837 He  0  0  0  0  0  0  0  0  0  0  0  0
    1.1631   -9.8732   16.4863 He  0  0  0  0  0  0  0  0  0  0  0  0
    7.3769   -6.1732   15.5652 He  0  0  0  0  0  0  0  0  0  0  0  0
    3.9035   -6.8849   27.6489 He  0  0  0  0  0  0  0  0  0  0  0  0
    3.3826   -6.0534   28.4323 He  0  0  0  0  0  0  0  0  0  0  0  0
  1  2  1  0
  1  6  2  0
  1  8  1  0
  1 11  4  0
  1 13  2  0
  1 16  1  0
  1 17  4  0
  1 18  2  0
  2  5  2  0
  2  6  3  0
  2  7  3  0
  2  9  1  0
  2 12  4  0
  3  6  2  0
  3  9  2  0
  3 11  2  0
  4 12  3  0
  4 13  4  0
  4 17  1  0
  4 19  3  0
  5  6  2  0
  5 12  4  0
  5 15  4  0
  5 19  4  0
  6 11  4  0
  6 19  2  0
  7  9  2  0
  7 13  2  0
  7 14  1  0
  7 15  1  0
  8 11  3  0
  8 12  4  0
  9 10  2  0
  9 14  4  0
  9 15  1  0
  9 17  1  0
 10 15  4  0
 10 16  4  0
 10 18  1  0
 10 19  2  0
 11 17  4  0
 11 18  3  0
 12 19  2  0
 13 18  2  0
 13 19  1  0
 15 18  4  0
 15 19  3  0
M  END
$$$$

 Created by Python create_sdf_string function

 28 14  0  0  0  0  0  0  0  0999 V2000
    1.5134   -9.4046   16.8352 C   0  0  0  0  0  0  0  0  0  0  0  0
    6.3111   -7.4236   16.8830 C   0  0  0  0  0  0  0  0  0  0  0  0
    4.3080   -8.9871   17.3438 C   0  0  0  0  0  0  0  0  0  0  0  0
    0.6534   -4.8963   27.1811 C   0  0  0  0  0  0  0  0  0  0  0  0
    8.3520   -6.5704   17.4096 C   0  0  0  0  0  0  0  0  0  0  0  0
    3.8983   -8.7798   27.9459 C   0  0  0  0  0  0  0  0  0  0  0  0
    7.7662   -6.9363   17.7182 C   0  0  0  0  0  0  0  0  0  0  0  0
    6.5873   -7.4381   17.5263 C   0  0  0  0  0  0  0  0  0  0  0  0
    3.7211   -5.8625   27.0239 C   0  0  0  0  0  0  0  0  0  0  0  0
    1.0999   -9.5392   16.7769 C   0  0  0  0  0  0  0  0  0  0  0  0
    3.0537   -9.5159   17.0972 C   0  0  0  0  0  0  0  0  0  0  0  0
    7.7218   -6.2060   15.8255 C   0  0  0  0  0  0  0  0  0  0  0  0
    5.0770   -7.2516   15.6314 C   0  0  0  0  0  0  0  0  0  0  0  0
    0.5969   -6.4713   27.3557 C   0  0  0  0  0  0  0  0  0  0  0  0
    4.1694   -8.0289   16.5077 C   0  0  0  0  0  0  0  0  0  0  0  0
    4.7060   -6.9712   26.4973 C   0  0  0  0  0  0  0  0  0  0  0  0
    1.6634   -6.2515   27.0897 C   0  0  0  0  0  0  0  0  0  0  0  0
    4.3580   -6.7951   28.9947 C   0  0  0  0  0  0  0  0  0  0  0  0
    3.3402   -6.5995   27.5131 C   0  0  0  0  0  0  0  0  0  0  0  0
    4.9886   -8.1763   28.6694 C   0  0  0  0  0  0  0  0  0  0  0  0
    0.2393   -6.1780   27.6682 C   0  0  0  0  0  0  0  0  0  0  0  0
   -0.5752   -5.1336   27.0272 O   0  0  0  0  0  0  0  0  0  0  0  0
    1.6954   -8.6248   16.2468 C   0  0  0  0  0  0  0  0  0  0  0  0
    6.9200   -6.7606   15.9470 C   0  0  0  0  0  0  0  0  0  0  0  0
    3.0588   -6.4958   28.3224 C   0  0  0  0  0  0  0  0  0  0  0  0
    5.2737   -7.8713   27.2892 C   0  0  0  0  0  0  0  0  0  0  0  0
    3.0462   -7.7074   15.8792 C   0  0  0  0  0  0  0  0  0  0  0  0
    5.0418   -9.1808   27.0261 O   0  0  0  0  0  0  0  0  0  0  0  0
  1 10  1  0
  1 23  4  0
  2  8  4  0
  3 11  4  0
  3 15  4  0
  5  7  4  0
  7  8  4  0
  9 19  1  0
 12 24  4  0
 15 27  4  0
 16 26  1  0
 19 25  1  0
 23 27  4  0
 26 28  1  0
M  END
$$$$

 Created by Python create_sdf_string function

 28 41  0  0  0  0  0  0  0  0999 V2000
    4.7971   -8.9692   17.2916 C   0  0  0  0  0  0  0  0  0  0  0  0
    8.5816   -6.6392   17.0736 C   0  0  0  0  0  0  0  0  0  0  0  0
    3.8080   -9.3977   28.2556 C   0  0  0  0  0  0  0  0  0  0  0  0
    7.0591   -8.2890   18.6878 N   0  0  0  0  0  0  0  0  0  0  0  0
    6.7424   -7.6565   17.4285 O   0  0  0  0  0  0  0  0  0  0  0  0
    4.1400   -5.9533   28.2059 F   0  0  0  0  0  0  0  0  0  0  0  0
    1.5305   -7.9511   16.9312 C   0  0  0  0  0  0  0  0  0  0  0  0
    3.0813   -9.7520   16.8737 Cl  0  0  0  0  0  0  0  0  0  0  0  0
    6.8850   -5.9807   14.4503 C   0  0  0  0  0  0  0  0  0  0  0  0
    1.8627   -6.8362   27.2430 C   0  0  0  0  0  0  0  0  0  0  0  0
    3.7025   -7.1802   25.5859 O   0  0  0  0  0  0  0  0  0  0  0  0
    4.4126   -7.6645   29.2728 C   0  0  0  0  0  0  0  0  0  0  0  0
    3.7463   -7.9616   26.8572 C   0  0  0  0  0  0  0  0  0  0  0  0
    3.5454   -8.2094   29.9875 C   0  0  0  0  0  0  0  0  0  0  0  0
    3.0905   -6.1542   28.9523 C   0  0  0  0  0  0  0  0  0  0  0  0
    4.8236   -7.6235   28.1011 S   0  0  0  0  0  0  0  0  0  0  0  0
    1.4586   -9.5964   16.7398 He  0  0  0  0  0  0  0  0  0  0  0  0
    6.2609   -7.9865   17.7809 He  0  0  0  0  0  0  0  0  0  0  0  0
    0.0413   -4.9717   26.5712 He  0  0  0  0  0  0  0  0  0  0  0  0
    5.4356   -6.2125   15.7407 He  0  0  0  0  0  0  0  0  0  0  0  0
    4.2145   -7.9978   16.1213 He  0  0  0  0  0  0  0  0  0  0  0  0
    0.7519   -6.7780   26.8964 He  0  0  0  0  0  0  0  0  0  0  0  0
    0.0828   -6.8896   27.5959 He  0  0  0  0  0  0  0  0  0  0  0  0
   -0.5408   -6.0832   27.8353 He  0  0  0  0  0  0  0  0  0  0  0  0
    1.4324   -8.3541   16.5195 He  0  0  0  0  0  0  0  0  0  0  0  0
    6.5386   -6.3196   15.8301 He  0  0  0  0  0  0  0  0  0  0  0  0
    3.8815   -8.0711   16.5843 He  0  0  0  0  0  0  0  0  0  0  0  0
    5.5874  -11.1471   28.0597 He  0  0  0  0  0  0  0  0  0  0  0  0
  1  4  4  0
  1  7  4  0
  1  8  2  0
  1 10  2  0
  1 16  2  0
  2 13  4  0
  2 16  2  0
  3 10  2  0
  3 13  2  0
  3 14  4  0
  3 15  3  0
  3 16  1  0
  4  5  4  0
  4  6  4  0
  4 16  3  0
  5  8  1  0
  5  9  2  0
  5 13  2  0
  5 15  4  0
  6  9  2  0
  6 11  4  0
  6 12  4  0
  6 13  1  0
  6 15  4  0
  6 16  2  0
  7 11  1  0
  7 15  4  0
  8 10  4  0
  8 12  3  0
  8 13  4  0
  8 14  1  0
  9 10  2  0
  9 16  3  0
 10 11  3  0
 10 12  4  0
 10 14  3  0
 10 16  1  0
 11 12  2  0
 11 13  1  0
 11 14  1  0
 14 16  2  0
M  END
$$$$

 Created by Python create_sdf_string function

 28 15  0  0  0  0  0  0  0  0999 V2000
    1.5949   -9.4451   16.8317 C   0  0  0  0  0  0  0  0  0  0  0  0
    6.5005   -7.6282   17.3301 C   0  0  0  0  0  0  0  0  0  0  0  0
    4.8274   -8.6602   17.3778 C   0  0  0  0  0  0  0  0  0  0  0  0
    0.1018   -5.3706   26.7803 C   0  0  0  0  0  0  0  0  0  0  0  0
    8.1283   -6.9165   17.3257 C   0  0  0  0  0  0  0  0  0  0  0  0
    4.4585   -9.4033   28.1872 C   0  0  0  0  0  0  0  0  0  0  0  0
    6.5084   -8.0852   18.2280 C   0  0  0  0  0  0  0  0  0  0  0  0
    6.7826   -7.6398   17.6879 C   0  0  0  0  0  0  0  0  0  0  0  0
    3.6168   -6.4660   28.2626 C   0  0  0  0  0  0  0  0  0  0  0  0
    1.9201   -7.9121   16.2414 C   0  0  0  0  0  0  0  0  0  0  0  0
    3.1581   -9.6207   17.0930 C   0  0  0  0  0  0  0  0  0  0  0  0
    6.8541   -6.4464   15.0242 C   0  0  0  0  0  0  0  0  0  0  0  0
    5.3987   -7.0898   15.5933 C   0  0  0  0  0  0  0  0  0  0  0  0
    2.0310   -6.6022   27.2619 C   0  0  0  0  0  0  0  0  0  0  0  0
    4.1583   -8.1263   16.5507 C   0  0  0  0  0  0  0  0  0  0  0  0
    3.5238   -7.4609   26.0121 C   0  0  0  0  0  0  0  0  0  0  0  0
    1.3456   -6.4896   26.9649 C   0  0  0  0  0  0  0  0  0  0  0  0
    4.2988   -7.5798   29.2271 C   0  0  0  0  0  0  0  0  0  0  0  0
    3.6877   -7.8084   26.8820 C   0  0  0  0  0  0  0  0  0  0  0  0
    3.9489   -8.1789   29.7338 C   0  0  0  0  0  0  0  0  0  0  0  0
    0.2779   -6.1717   27.7552 C   0  0  0  0  0  0  0  0  0  0  0  0
   -0.3273   -5.9578   27.9861 O   0  0  0  0  0  0  0  0  0  0  0  0
    1.4101   -8.3882   16.4111 C   0  0  0  0  0  0  0  0  0  0  0  0
    6.8234   -6.6870   15.7873 C   0  0  0  0  0  0  0  0  0  0  0  0
    2.7779   -6.3401   28.7626 C   0  0  0  0  0  0  0  0  0  0  0  0
    4.4934   -8.1973   28.0211 C   0  0  0  0  0  0  0  0  0  0  0  0
    3.5951   -7.8442   16.2825 C   0  0  0  0  0  0  0  0  0  0  0  0
    4.9990  -10.2529   28.3373 O   0  0  0  0  0  0  0  0  0  0  0  0
  1 11  4  0
  1 23  4  0
  2  8  4  0
  3  7  4  0
  3 15  4  0
  6 26  1  0
  6 28  1  0
  7  8  4  0
  9 25  1  0
 10 23  4  0
 12 24  4  0
 14 17  1  0
 15 27  4  0
 16 19  1  0
 21 22  1  0
M  END
$$$$

 Created by Python create_sdf_string function

 28 41  0  0  0  0  0  0  0  0999 V2000
    1.3364   -9.8141   17.1583 N   0  0  0  0  0  0  0  0  0  0  0  0
    4.8469   -8.5675   17.3558 C   0  0  0  0  0  0  0  0  0  0  0  0
    1.3653   -4.6891   25.7155 C   0  0  0  0  0  0  0  0  0  0  0  0
    4.5980   -7.5718   28.1980 S   0  0  0  0  0  0  0  0  0  0  0  0
    6.8622   -7.4405   18.0214 C   0  0  0  0  0  0  0  0  0  0  0  0
    3.0075   -6.5261   28.1528 C   0  0  0  0  0  0  0  0  0  0  0  0
    4.7208   -9.4158   17.2960 P   0  0  0  0  0  0  0  0  0  0  0  0
    5.6946   -6.6095   14.6510 Se  0  0  0  0  0  0  0  0  0  0  0  0
    4.7434   -8.1280   15.8208 Cl  0  0  0  0  0  0  0  0  0  0  0  0
    4.4655   -7.8657   16.8346 C   0  0  0  0  0  0  0  0  0  0  0  0
    2.8251   -5.5666   26.5093 C   0  0  0  0  0  0  0  0  0  0  0  0
    1.0549   -5.6764   27.2401 S   0  0  0  0  0  0  0  0  0  0  0  0
    4.7871   -6.9737   28.4579 C   0  0  0  0  0  0  0  0  0  0  0  0
    2.3135  -10.2429   28.0793 P   0  0  0  0  0  0  0  0  0  0  0  0
    0.7672   -6.2819   28.4834 S   0  0  0  0  0  0  0  0  0  0  0  0
    1.4369   -8.4948   16.3376 C   0  0  0  0  0  0  0  0  0  0  0  0
    7.1275   -6.1618   16.2390 C   0  0  0  0  0  0  0  0  0  0  0  0
    5.7419   -7.1066   16.4713 He  0  0  0  0  0  0  0  0  0  0  0  0
    8.1708   -6.5727   17.2510 He  0  0  0  0  0  0  0  0  0  0  0  0
    5.1237   -8.2248   18.8120 He  0  0  0  0  0  0  0  0  0  0  0  0
    3.0344   -6.3665   15.7104 He  0  0  0  0  0  0  0  0  0  0  0  0
   -0.3411   -6.5796   27.5321 He  0  0  0  0  0  0  0  0  0  0  0  0
    2.9476   -7.2296   28.9785 He  0  0  0  0  0  0  0  0  0  0  0  0
    0.3327   -6.4321   27.8091 He  0  0  0  0  0  0  0  0  0  0  0  0
    3.3731   -5.8549   28.8090 He  0  0  0  0  0  0  0  0  0  0  0  0
    3.9360   -7.3226   27.0385 He  0  0  0  0  0  0  0  0  0  0  0  0
    3.5816   -8.3017   16.6592 He  0  0  0  0  0  0  0  0  0  0  0  0
    5.4825  -11.3654   30.0050 He  0  0  0  0  0  0  0  0  0  0  0  0
  1  4  1  0
  1  6  4  0
  1  7  4  0
  1  9  2  0
  1 12  2  0
  1 16  4  0
  2  3  1  0
  2  6  1  0
  2  7  4  0
  2 10  4  0
  3  9  1  0
  3 12  4  0
  4  6  4  0
  4 10  3  0
  4 11  1  0
  4 13  1  0
  5  7  1  0
  5 13  2  0
  6  7  4  0
  6 17  2  0
  7 10  3  0
  7 13  1  0
  7 17  1  0
  8 10  2  0
  8 11  3  0
  8 13  3  0
  8 16  3  0
  9 11  1  0
  9 14  3  0
  9 15  4  0
 10 13  3  0
 10 14  3  0
 10 15  1  0
 11 12  1  0
 11 13  4  0
 11 14  1  0
 12 16  1  0
 13 14  1  0
 13 15  1  0
 14 16  1  0
 15 16  1  0
M  END
$$$$

 Created by Python create_sdf_string function

 28 21  0  0  0  0  0  0  0  0999 V2000
    2.0851   -9.5446   17.1378 C   0  0  0  0  0  0  0  0  0  0  0  0
    6.2897   -7.1767   16.5705 C   0  0  0  0  0  0  0  0  0  0  0  0
    4.7975   -8.7203   17.5367 C   0  0  0  0  0  0  0  0  0  0  0  0
    0.9996   -4.9913   26.6193 C   0  0  0  0  0  0  0  0  0  0  0  0
    8.1764   -6.4084   16.8996 O   0  0  0  0  0  0  0  0  0  0  0  0
    4.8827   -8.0716   28.2622 C   0  0  0  0  0  0  0  0  0  0  0  0
    5.9100   -8.5681   18.3306 C   0  0  0  0  0  0  0  0  0  0  0  0
    6.8882   -7.6457   17.8197 C   0  0  0  0  0  0  0  0  0  0  0  0
    3.0371   -6.8002   28.1382 C   0  0  0  0  0  0  0  0  0  0  0  0
    3.2789   -7.1104   15.3630 C   0  0  0  0  0  0  0  0  0  0  0  0
    3.8559   -9.6559   17.7150 C   0  0  0  0  0  0  0  0  0  0  0  0
    6.1713   -6.5694   15.1420 C   0  0  0  0  0  0  0  0  0  0  0  0
    4.7770   -7.4408   15.9208 C   0  0  0  0  0  0  0  0  0  0  0  0
   -0.2749   -5.8505   27.5476 C   0  0  0  0  0  0  0  0  0  0  0  0
    4.2604   -8.0771   16.5729 C   0  0  0  0  0  0  0  0  0  0  0  0
    2.6683   -5.6812   26.6797 C   0  0  0  0  0  0  0  0  0  0  0  0
    1.2823   -5.3867   26.8837 C   0  0  0  0  0  0  0  0  0  0  0  0
    4.4481   -7.7569   28.5791 C   0  0  0  0  0  0  0  0  0  0  0  0
    3.2484   -9.5014   28.6173 C   0  0  0  0  0  0  0  0  0  0  0  0
    3.0083   -8.3255   28.9630 C   0  0  0  0  0  0  0  0  0  0  0  0
    0.1371   -6.2023   27.9193 C   0  0  0  0  0  0  0  0  0  0  0  0
    0.8484   -6.7092   28.4488 C   0  0  0  0  0  0  0  0  0  0  0  0
    1.6079   -8.5336   16.2803 C   0  0  0  0  0  0  0  0  0  0  0  0
    7.6012   -6.3265   16.1862 C   0  0  0  0  0  0  0  0  0  0  0  0
    3.3379   -6.3746   28.3465 C   0  0  0  0  0  0  0  0  0  0  0  0
    4.0510   -7.3384   27.2106 C   0  0  0  0  0  0  0  0  0  0  0  0
    2.7564   -8.4599   16.4162 C   0  0  0  0  0  0  0  0  0  0  0  0
    4.6322  -10.0373   29.2510 C   0  0  0  0  0  0  0  0  0  0  0  0
  1 11  4  0
  1 23  4  0
  2  8  4  0
  2 12  4  0
  3  7  4  0
  3 11  4  0
  3 15  4  0
  4 17  4  0
  5 24  4  0
  6 18  1  0
  7  8  4  0
  9 25  1  0
 12 24  4  0
 13 15  4  0
 14 21  4  0
 15 27  4  0
 16 17  1  0
 19 20  4  0
 19 28  1  0
 21 22  4  0
 23 27  4  0
M  END
$$$$

 Created by Python create_sdf_string function

 28 49  0  0  0  0  0  0  0  0999 V2000
    2.0578   -9.9642   16.9552 C   0  0  0  0  0  0  0  0  0  0  0  0
    4.6913   -8.9972   17.6117 Br  0  0  0  0  0  0  0  0  0  0  0  0
   -0.2749   -4.6685   26.5815 O   0  0  0  0  0  0  0  0  0  0  0  0
    7.5606   -6.2151   17.3970 O   0  0  0  0  0  0  0  0  0  0  0  0
    5.4769   -8.1940   17.2323 C   0  0  0  0  0  0  0  0  0  0  0  0
    2.8733   -6.5936   27.0364 B   0  0  0  0  0  0  0  0  0  0  0  0
    3.2554   -7.2712   15.0879 C   0  0  0  0  0  0  0  0  0  0  0  0
    6.1346   -6.8527   15.4253 C   0  0  0  0  0  0  0  0  0  0  0  0
    3.8057   -7.7538   15.9007 B   0  0  0  0  0  0  0  0  0  0  0  0
    4.0106   -7.7869   16.8833 C   0  0  0  0  0  0  0  0  0  0  0  0
    2.7841   -5.5968   26.7595 O   0  0  0  0  0  0  0  0  0  0  0  0
    4.6028   -8.2489   28.2896 C   0  0  0  0  0  0  0  0  0  0  0  0
    2.7600   -8.6602   28.7404 N   0  0  0  0  0  0  0  0  0  0  0  0
   -0.5298   -5.6550   28.0872 O   0  0  0  0  0  0  0  0  0  0  0  0
    2.2398   -6.8388   29.6538 C   0  0  0  0  0  0  0  0  0  0  0  0
    1.5559   -8.3986   15.7588 C   0  0  0  0  0  0  0  0  0  0  0  0
    7.9848   -6.4892   16.0581 C   0  0  0  0  0  0  0  0  0  0  0  0
    4.0168   -9.2770   27.7359 C   0  0  0  0  0  0  0  0  0  0  0  0
    6.4584   -6.8362   16.2300 He  0  0  0  0  0  0  0  0  0  0  0  0
    5.1322   -7.9452   28.4388 He  0  0  0  0  0  0  0  0  0  0  0  0
    6.5279   -7.5370   17.7875 He  0  0  0  0  0  0  0  0  0  0  0  0
    4.0917   -8.2787   17.3414 He  0  0  0  0  0  0  0  0  0  0  0  0
   -0.3246   -6.0464   27.8843 He  0  0  0  0  0  0  0  0  0  0  0  0
    1.2480   -4.5085   27.4225 He  0  0  0  0  0  0  0  0  0  0  0  0
    3.5059   -8.8457   29.6288 He  0  0  0  0  0  0  0  0  0  0  0  0
    2.5554   -6.3615   28.8727 He  0  0  0  0  0  0  0  0  0  0  0  0
    3.7830   -6.4664   26.5867 He  0  0  0  0  0  0  0  0  0  0  0  0
    1.8345   -7.2651   15.8491 He  0  0  0  0  0  0  0  0  0  0  0  0
  1  5  3  0
  1  7  4  0
  1  8  1  0
  2  3  3  0
  2  5  4  0
  2 10  4  0
  2 13  3  0
  2 14  1  0
  3  7  1  0
  3 10  4  0
  4  5  3  0
  4 10  1  0
  4 11  4  0
  4 12  2  0
  4 14  4  0
  4 17  4  0
  4 18  3  0
  5  6  1  0
  5  8  1  0
  5 13  2  0
  5 15  4  0
  6  8  1  0
  6  9  4  0
  6 11  1  0
  6 17  1  0
  6 18  4  0
  7  9  3  0
  7 11  3  0
  7 12  2  0
  7 14  3  0
  7 18  4  0
  8  9  4  0
  8 17  3  0
  9 10  2  0
  9 11  1  0
  9 12  4  0
  9 14  3  0
  9 15  3  0
  9 16  2  0
  9 17  2  0
 10 18  4  0
 11 12  3  0
 11 17  2  0
 12 13  1  0
 13 16  2  0
 13 18  1  0
 14 16  2  0
 14 17  2  0
 15 17  3  0
M  END
$$$$

 Created by Python create_sdf_string function

 28 17  0  0  0  0  0  0  0  0999 V2000
    2.0722   -9.2238   16.9467 C   0  0  0  0  0  0  0  0  0  0  0  0
    6.5884   -7.0016   16.2804 C   0  0  0  0  0  0  0  0  0  0  0  0
    5.0864   -8.8677   17.8883 C   0  0  0  0  0  0  0  0  0  0  0  0
   -0.0420   -4.8532   26.7285 O   0  0  0  0  0  0  0  0  0  0  0  0
    7.9901   -6.6336   17.2985 C   0  0  0  0  0  0  0  0  0  0  0  0
    5.0970   -8.2296   27.8601 C   0  0  0  0  0  0  0  0  0  0  0  0
    6.0099   -7.8551   17.5468 C   0  0  0  0  0  0  0  0  0  0  0  0
    6.9520   -7.5792   17.9562 C   0  0  0  0  0  0  0  0  0  0  0  0
    2.7370   -6.4345   27.0499 C   0  0  0  0  0  0  0  0  0  0  0  0
    3.4816   -7.2483   15.3678 C   0  0  0  0  0  0  0  0  0  0  0  0
    3.8204   -8.6330   17.0617 C   0  0  0  0  0  0  0  0  0  0  0  0
    6.1621   -6.9080   15.7071 C   0  0  0  0  0  0  0  0  0  0  0  0
    3.8252   -7.5308   15.7866 C   0  0  0  0  0  0  0  0  0  0  0  0
    0.2225   -5.7983   27.9620 C   0  0  0  0  0  0  0  0  0  0  0  0
    3.8909   -8.3507   16.8115 C   0  0  0  0  0  0  0  0  0  0  0  0
    2.5124   -5.8519   26.6971 C   0  0  0  0  0  0  0  0  0  0  0  0
    1.0608   -5.0451   27.0770 C   0  0  0  0  0  0  0  0  0  0  0  0
    4.6387   -8.1433   28.2960 C   0  0  0  0  0  0  0  0  0  0  0  0
    3.3345   -8.2098   28.5837 N   0  0  0  0  0  0  0  0  0  0  0  0
    3.4496   -8.6486   29.6506 O   0  0  0  0  0  0  0  0  0  0  0  0
   -0.1270   -5.8319   28.2513 O   0  0  0  0  0  0  0  0  0  0  0  0
    1.9488   -7.1196   29.2423 C   0  0  0  0  0  0  0  0  0  0  0  0
    1.3350   -8.3489   16.1978 C   0  0  0  0  0  0  0  0  0  0  0  0
    7.8278   -6.3664   16.4993 C   0  0  0  0  0  0  0  0  0  0  0  0
    2.2623   -6.9473   28.5084 C   0  0  0  0  0  0  0  0  0  0  0  0
    3.8418   -6.8473   26.6560 C   0  0  0  0  0  0  0  0  0  0  0  0
    1.7158   -7.7275   15.5189 C   0  0  0  0  0  0  0  0  0  0  0  0
    4.1423   -9.0950   27.8255 C   0  0  0  0  0  0  0  0  0  0  0  0
  1 11  4  0
  1 23  4  0
  2 12  4  0
  3  7  4  0
  3 15  4  0
  5  8  4  0
  5 24  4  0
  6 18  1  0
  6 28  1  0
  7  8  4  0
  9 16  1  0
 10 13  4  0
 11 15  4  0
 14 21  1  0
 19 28  1  0
 22 25  1  0
 23 27  4  0
M  END
$$$$

 Created by Python create_sdf_string function

 28 40  0  0  0  0  0  0  0  0999 V2000
    2.1838   -8.3478   16.9571 C   0  0  0  0  0  0  0  0  0  0  0  0
    7.3664   -6.7500   15.5523 C   0  0  0  0  0  0  0  0  0  0  0  0
    5.2286   -8.9222   18.0864 N   0  0  0  0  0  0  0  0  0  0  0  0
   -0.4978   -4.8975   26.4972 N   0  0  0  0  0  0  0  0  0  0  0  0
    6.5552   -7.9378   18.3617 C   0  0  0  0  0  0  0  0  0  0  0  0
    1.9114   -6.7937   27.0898 C   0  0  0  0  0  0  0  0  0  0  0  0
    4.0899   -8.1929   16.2181 C   0  0  0  0  0  0  0  0  0  0  0  0
    3.3353   -7.4883   14.9179 N   0  0  0  0  0  0  0  0  0  0  0  0
    3.8662   -7.9837   16.7826 C   0  0  0  0  0  0  0  0  0  0  0  0
    1.9399   -3.9725   27.4248 C   0  0  0  0  0  0  0  0  0  0  0  0
    0.3592   -4.8904   27.0896 Br  0  0  0  0  0  0  0  0  0  0  0  0
    3.4848   -7.5744   27.8229 C   0  0  0  0  0  0  0  0  0  0  0  0
    3.5966   -8.3983   29.0559 S   0  0  0  0  0  0  0  0  0  0  0  0
    2.3739   -7.1697   28.2274 C   0  0  0  0  0  0  0  0  0  0  0  0
    1.3840   -8.4947   16.2800 C   0  0  0  0  0  0  0  0  0  0  0  0
    1.9388   -8.4295   26.9440 C   0  0  0  0  0  0  0  0  0  0  0  0
    2.9307   -9.3564   15.4618 C   0  0  0  0  0  0  0  0  0  0  0  0
    8.1960   -6.9720   17.5445 He  0  0  0  0  0  0  0  0  0  0  0  0
    4.8739   -8.4567   27.7498 He  0  0  0  0  0  0  0  0  0  0  0  0
    5.2107   -8.2555   17.4520 He  0  0  0  0  0  0  0  0  0  0  0  0
    3.6422   -6.9721   16.2774 He  0  0  0  0  0  0  0  0  0  0  0  0
    5.3756   -7.3245   17.3107 He  0  0  0  0  0  0  0  0  0  0  0  0
   -0.0172   -5.2673   26.5665 He  0  0  0  0  0  0  0  0  0  0  0  0
    3.7567   -8.1540   28.2153 He  0  0  0  0  0  0  0  0  0  0  0  0
    0.9174   -6.6519   27.5864 He  0  0  0  0  0  0  0  0  0  0  0  0
    7.6589   -6.5540   16.4697 He  0  0  0  0  0  0  0  0  0  0  0  0
    3.5776   -5.7981   26.4380 He  0  0  0  0  0  0  0  0  0  0  0  0
    5.3282  -10.0128   29.4136 He  0  0  0  0  0  0  0  0  0  0  0  0
  1  2  3  0
  1  3  2  0
  1  6  3  0
  1  7  1  0
  1  8  4  0
  1 13  3  0
  1 17  4  0
  2  4  1  0
  2  6  3  0
  2  7  2  0
  2  8  2  0
  2 11  4  0
  2 12  3  0
  2 14  1  0
  3  6  2  0
  3  9  4  0
  3 11  2  0
  4 13  2  0
  4 17  4  0
  5  6  4  0
  5 12  3  0
  5 13  2  0
  5 17  4  0
  6 15  3  0
  6 17  4  0
  8  9  2  0
  8 12  1  0
  8 13  1  0
  8 15  1  0
  8 17  2  0
  9 13  4  0
  9 14  4  0
 10 11  1  0
 11 12  4  0
 12 14  4  0
 13 16  1  0
 13 17  2  0
 14 17  2  0
 15 16  1  0
 15 17  4  0
M  END
$$$$

 Created by Python create_sdf_string function

 28 21  0  0  0  0  0  0  0  0999 V2000
    1.9382   -8.9284   16.5246 C   0  0  0  0  0  0  0  0  0  0  0  0
    7.3385   -6.3607   15.8789 C   0  0  0  0  0  0  0  0  0  0  0  0
    5.0461   -8.8570   18.0866 N   0  0  0  0  0  0  0  0  0  0  0  0
   -0.7678   -4.9137   26.6836 N   0  0  0  0  0  0  0  0  0  0  0  0
    8.3490   -6.8578   17.4133 C   0  0  0  0  0  0  0  0  0  0  0  0
    4.9786   -8.5144   27.7248 C   0  0  0  0  0  0  0  0  0  0  0  0
    5.8940   -8.1673   17.9760 C   0  0  0  0  0  0  0  0  0  0  0  0
    7.0248   -7.8866   18.1681 C   0  0  0  0  0  0  0  0  0  0  0  0
    1.8407   -5.9034   27.0947 C   0  0  0  0  0  0  0  0  0  0  0  0
    4.4568   -7.4015   15.8358 C   0  0  0  0  0  0  0  0  0  0  0  0
    3.8967   -8.0958   16.4772 C   0  0  0  0  0  0  0  0  0  0  0  0
    5.8039   -7.3122   16.4354 C   0  0  0  0  0  0  0  0  0  0  0  0
    3.1369   -7.4110   15.3034 C   0  0  0  0  0  0  0  0  0  0  0  0
   -0.0676   -5.5065   27.0081 C   0  0  0  0  0  0  0  0  0  0  0  0
    4.1528   -8.4127   17.0440 C   0  0  0  0  0  0  0  0  0  0  0  0
    1.9475   -4.4029   26.8790 C   0  0  0  0  0  0  0  0  0  0  0  0
    0.7829   -4.2970   26.9700 C   0  0  0  0  0  0  0  0  0  0  0  0
    3.5349   -7.4419   27.4877 C   0  0  0  0  0  0  0  0  0  0  0  0
    4.6222   -9.0271   28.6091 C   0  0  0  0  0  0  0  0  0  0  0  0
    3.6068   -8.9348   29.0097 C   0  0  0  0  0  0  0  0  0  0  0  0
    0.8262   -6.6908   27.4187 C   0  0  0  0  0  0  0  0  0  0  0  0
    2.3686   -7.5606   27.8331 C   0  0  0  0  0  0  0  0  0  0  0  0
    1.3770   -8.7811   16.1946 C   0  0  0  0  0  0  0  0  0  0  0  0
    7.6788   -6.6891   16.6584 C   0  0  0  0  0  0  0  0  0  0  0  0
    2.7819   -8.4935   27.4463 C   0  0  0  0  0  0  0  0  0  0  0  0
    3.4587   -5.8119   26.9163 C   0  0  0  0  0  0  0  0  0  0  0  0
    1.9621   -8.8673   15.7150 C   0  0  0  0  0  0  0  0  0  0  0  0
    5.3448   -9.7836   29.0681 O   0  0  0  0  0  0  0  0  0  0  0  0
  1 23  4  0
  1 27  4  0
  2 24  2  0
  3  7  4  0
  3 15  4  0
  4 14  1  0
  5 24  4  0
  6 19  4  0
  7  8  4  0
  9 16  4  0
 10 11  4  0
 10 12  4  0
 10 13  4  0
 11 15  4  0
 14 21  4  0
 16 17  1  0
 18 22  4  0
 19 20  4  0
 19 28  2  0
 21 22  4  0
 23 27  4  0
M  END
$$$$

 Created by Python create_sdf_string function

 28 67  0  0  0  0  0  0  0  0999 V2000
    1.9497   -8.8718   16.8425 O   0  0  0  0  0  0  0  0  0  0  0  0
    4.8548   -8.7818   18.4668 N   0  0  0  0  0  0  0  0  0  0  0  0
   -2.2496   -5.1979   26.1885 N   0  0  0  0  0  0  0  0  0  0  0  0
    8.3587   -6.7065   17.1772 C   0  0  0  0  0  0  0  0  0  0  0  0
    3.6707   -8.5240   27.3810 C   0  0  0  0  0  0  0  0  0  0  0  0
    5.7894   -7.3803   17.7691 Se  0  0  0  0  0  0  0  0  0  0  0  0
    7.2450   -8.2529   18.1841 C   0  0  0  0  0  0  0  0  0  0  0  0
    0.7120   -6.2149   26.7655 C   0  0  0  0  0  0  0  0  0  0  0  0
    4.4778   -8.1487   16.1197 C   0  0  0  0  0  0  0  0  0  0  0  0
    2.8122   -8.3678   16.0061 C   0  0  0  0  0  0  0  0  0  0  0  0
    2.0246   -8.1361   15.8161 F   0  0  0  0  0  0  0  0  0  0  0  0
   -0.2910   -5.5644   27.1753 O   0  0  0  0  0  0  0  0  0  0  0  0
    4.0141   -8.6613   17.1790 C   0  0  0  0  0  0  0  0  0  0  0  0
    1.4896   -5.4681   27.2080 C   0  0  0  0  0  0  0  0  0  0  0  0
    4.1512   -7.6591   26.7493 C   0  0  0  0  0  0  0  0  0  0  0  0
    3.4078   -8.6538   28.7202 O   0  0  0  0  0  0  0  0  0  0  0  0
    1.1911   -7.0734   27.6075 C   0  0  0  0  0  0  0  0  0  0  0  0
    1.1698   -8.1696   16.1204 C   0  0  0  0  0  0  0  0  0  0  0  0
    7.7422   -6.9435   16.1101 C   0  0  0  0  0  0  0  0  0  0  0  0
    2.0837   -9.2737   28.0413 C   0  0  0  0  0  0  0  0  0  0  0  0
    3.9143   -5.7699   27.1347 C   0  0  0  0  0  0  0  0  0  0  0  0
    8.0401   -7.7880   15.9790 He  0  0  0  0  0  0  0  0  0  0  0  0
    5.2946   -7.0168   17.1565 He  0  0  0  0  0  0  0  0  0  0  0  0
    1.4985   -5.0167   26.7742 He  0  0  0  0  0  0  0  0  0  0  0  0
    6.2439   -7.2788   28.4836 He  0  0  0  0  0  0  0  0  0  0  0  0
    2.3996   -7.5631   28.4683 He  0  0  0  0  0  0  0  0  0  0  0  0
   -0.3630   -8.6670   14.7365 He  0  0  0  0  0  0  0  0  0  0  0  0
    7.3926   -8.8341   28.4067 He  0  0  0  0  0  0  0  0  0  0  0  0
  1  3  2  0
  1  4  3  0
  1  8  4  0
  1  9  1  0
  1 11  3  0
  1 18  4  0
  1 20  4  0
  2  6  4  0
  2  9  3  0
  2 10  2  0
  2 11  2  0
  2 13  4  0
  2 15  4  0
  2 20  1  0
  3  7  1  0
  3  9  1  0
  3 11  4  0
  3 13  3  0
  3 16  1  0
  3 17  4  0
  4  9  1  0
  4 10  4  0
  4 11  3  0
  4 12  1  0
  4 16  2  0
  4 19  4  0
  4 20  3  0
  5 12  1  0
  5 13  3  0
  5 17  2  0
  5 18  3  0
  6 12  3  0
  6 13  2  0
  7 15  1  0
  8  9  2  0
  8 11  1  0
  8 12  3  0
  8 14  3  0
  8 15  1  0
  8 16  4  0
  8 17  4  0
  8 19  1  0
  8 20  3  0
  9 11  3  0
  9 13  2  0
  9 16  3  0
  9 18  1  0
  9 19  2  0
 10 13  4  0
 10 18  2  0
 11 18  1  0
 11 19  3  0
 11 20  4  0
 12 13  1  0
 12 16  1  0
 12 17  1  0
 14 16  3  0
 16 17  2  0
 16 19  4  0
 16 20  4  0
 17 18  1  0
 17 20  4  0
 17 21  4  0
 18 20  1  0
 18 21  3  0
 19 21  2  0
 20 21  3  0
M  END
$$$$

 Created by Python create_sdf_string function

 28 25  0  0  0  0  0  0  0  0999 V2000
    1.7456   -9.2154   16.8773 O   0  0  0  0  0  0  0  0  0  0  0  0
    7.2031   -6.8286   15.9411 C   0  0  0  0  0  0  0  0  0  0  0  0
    4.9525   -8.7813   18.0096 C   0  0  0  0  0  0  0  0  0  0  0  0
   -1.2528   -4.9998   26.4526 N   0  0  0  0  0  0  0  0  0  0  0  0
    8.0646   -6.9960   17.4054 C   0  0  0  0  0  0  0  0  0  0  0  0
    4.1575   -7.9252   27.5930 C   0  0  0  0  0  0  0  0  0  0  0  0
    5.9087   -7.9981   17.5141 C   0  0  0  0  0  0  0  0  0  0  0  0
    7.0339   -7.7588   18.0345 C   0  0  0  0  0  0  0  0  0  0  0  0
    0.7127   -6.4423   27.3282 C   0  0  0  0  0  0  0  0  0  0  0  0
    4.4659   -7.5824   15.8960 C   0  0  0  0  0  0  0  0  0  0  0  0
    3.2462   -8.1984   16.3029 C   0  0  0  0  0  0  0  0  0  0  0  0
    5.6690   -7.5365   16.4110 C   0  0  0  0  0  0  0  0  0  0  0  0
    1.9383   -7.9789   15.5886 C   0  0  0  0  0  0  0  0  0  0  0  0
   -0.3299   -5.4991   27.0201 C   0  0  0  0  0  0  0  0  0  0  0  0
    3.7036   -8.8820   17.2269 C   0  0  0  0  0  0  0  0  0  0  0  0
    1.1336   -4.8236   26.8037 C   0  0  0  0  0  0  0  0  0  0  0  0
    1.8168   -5.2654   26.8668 C   0  0  0  0  0  0  0  0  0  0  0  0
    5.0327   -7.5256   26.8741 C   0  0  0  0  0  0  0  0  0  0  0  0
    6.0602   -7.8876   27.7289 C   0  0  0  0  0  0  0  0  0  0  0  0
    3.9138   -8.9815   28.3900 C   0  0  0  0  0  0  0  0  0  0  0  0
    1.1784   -7.1515   27.5211 C   0  0  0  0  0  0  0  0  0  0  0  0
    2.8179   -7.5116   27.5708 C   0  0  0  0  0  0  0  0  0  0  0  0
    1.2054   -8.5742   16.0661 C   0  0  0  0  0  0  0  0  0  0  0  0
    7.8226   -6.7094   16.2559 C   0  0  0  0  0  0  0  0  0  0  0  0
    2.3510   -8.7932   28.1559 C   0  0  0  0  0  0  0  0  0  0  0  0
    3.3851   -6.1598   27.0322 C   0  0  0  0  0  0  0  0  0  0  0  0
    0.2438   -8.6247   15.4023 C   0  0  0  0  0  0  0  0  0  0  0  0
    6.4997   -8.2156   28.0781 C   0  0  0  0  0  0  0  0  0  0  0  0
  1 23  4  0
  2 12  4  0
  2 24  4  0
  3  7  4  0
  3 15  4  0
  4 14  1  0
  5  8  4  0
  5 24  4  0
  6 18  4  0
  6 22  4  0
  7  8  4  0
  7 12  4  0
  9 14  1  0
  9 21  4  0
 10 11  4  0
 10 12  4  0
 11 13  4  0
 11 15  4  0
 13 23  1  0
 16 17  4  0
 17 26  4  0
 18 19  1  0
 19 28  2  0
 20 25  4  0
 23 27  1  0
M  END
$$$$

 Created by Python create_sdf_string function

 28 67  0  0  0  0  0  0  0  0999 V2000
    1.7267   -9.2025   16.5734 O   0  0  0  0  0  0  0  0  0  0  0  0
    5.2070   -9.3662   18.0118 C   0  0  0  0  0  0  0  0  0  0  0  0
   -1.1384   -5.4017   26.8611 N   0  0  0  0  0  0  0  0  0  0  0  0
    8.1073   -7.0295   16.9500 B   0  0  0  0  0  0  0  0  0  0  0  0
    4.0408   -7.9166   26.9045 P   0  0  0  0  0  0  0  0  0  0  0  0
    6.5372   -7.2885   16.2943 C   0  0  0  0  0  0  0  0  0  0  0  0
    7.6429   -7.6776   18.2246 C   0  0  0  0  0  0  0  0  0  0  0  0
   -0.5132   -7.2708   27.8223 C   0  0  0  0  0  0  0  0  0  0  0  0
    5.0616   -7.7170   16.5727 C   0  0  0  0  0  0  0  0  0  0  0  0
    3.1212   -7.7462   18.0838 C   0  0  0  0  0  0  0  0  0  0  0  0
    5.4551   -8.0282   16.0000 F   0  0  0  0  0  0  0  0  0  0  0  0
    1.1415   -6.4362   14.6819 P   0  0  0  0  0  0  0  0  0  0  0  0
    3.1648   -9.3039   17.0620 C   0  0  0  0  0  0  0  0  0  0  0  0
    0.7137   -5.3457   27.5682 C   0  0  0  0  0  0  0  0  0  0  0  0
    1.3678   -5.3196   27.8967 C   0  0  0  0  0  0  0  0  0  0  0  0
    6.8191   -8.2466   28.2058 Cl  0  0  0  0  0  0  0  0  0  0  0  0
    5.1397   -8.2356   27.5091 F   0  0  0  0  0  0  0  0  0  0  0  0
    1.6311   -7.1054   26.8576 C   0  0  0  0  0  0  0  0  0  0  0  0
    1.3458   -6.0759   27.6934 F   0  0  0  0  0  0  0  0  0  0  0  0
    1.4560   -8.5841   15.8861 C   0  0  0  0  0  0  0  0  0  0  0  0
    3.3059   -7.6652   27.7442 Cl  0  0  0  0  0  0  0  0  0  0  0  0
    4.1436   -9.8669   29.3493 P   0  0  0  0  0  0  0  0  0  0  0  0
    7.4355   -6.3465   16.8009 He  0  0  0  0  0  0  0  0  0  0  0  0
   -1.3588   -6.8133   25.9161 He  0  0  0  0  0  0  0  0  0  0  0  0
    4.8365   -7.1878   26.7106 He  0  0  0  0  0  0  0  0  0  0  0  0
    8.0323   -6.9127   15.7490 He  0  0  0  0  0  0  0  0  0  0  0  0
    2.0879   -8.6193   28.9633 He  0  0  0  0  0  0  0  0  0  0  0  0
   -0.7871   -8.1431   14.5810 He  0  0  0  0  0  0  0  0  0  0  0  0
  1  3  1  0
  1  6  4  0
  1  9  3  0
  1 16  4  0
  1 18  4  0
  1 20  4  0
  1 21  4  0
  2  8  4  0
  2 10  2  0
  2 13  4  0
  2 16  3  0
  3  4  3  0
  3  6  3  0
  3 10  3  0
  3 14  2  0
  3 16  4  0
  3 20  1  0
  4 11  2  0
  4 17  1  0
  5 10  2  0
  5 11  1  0
  5 15  1  0
  5 16  1  0
  5 19  4  0
  5 20  4  0
  5 21  2  0
  6  7  4  0
  6  8  4  0
  6 13  4  0
  6 16  1  0
  6 20  1  0
  7 14  2  0
  8  9  3  0
  8 11  4  0
  8 15  3  0
  8 17  2  0
  8 19  1  0
  8 21  4  0
 10 12  4  0
 10 13  4  0
 10 16  4  0
 10 19  3  0
 10 21  1  0
 10 22  1  0
 11 13  2  0
 11 14  4  0
 11 20  3  0
 11 21  2  0
 12 19  4  0
 12 20  2  0
 12 21  2  0
 13 14  1  0
 13 17  1  0
 13 19  3  0
 14 15  2  0
 14 17  3  0
 14 22  1  0
 15 16  4  0
 16 17  2  0
 16 18  2  0
 16 21  4  0
 16 22  2  0
 17 22  4  0
 18 19  3  0
 18 20  2  0
 18 21  3  0
 19 20  2  0
M  END
$$$$

 Created by Python create_sdf_string function

 28 22  0  0  0  0  0  0  0  0999 V2000
    1.5701   -8.9939   16.5597 O   0  0  0  0  0  0  0  0  0  0  0  0
    7.7115   -6.6170   16.4183 C   0  0  0  0  0  0  0  0  0  0  0  0
    5.0716   -8.8041   17.8498 C   0  0  0  0  0  0  0  0  0  0  0  0
   -0.9732   -5.1241   26.9969 N   0  0  0  0  0  0  0  0  0  0  0  0
    8.4406   -6.8637   17.2771 C   0  0  0  0  0  0  0  0  0  0  0  0
    4.1826   -7.7686   27.2421 C   0  0  0  0  0  0  0  0  0  0  0  0
    6.3068   -7.5715   16.9834 C   0  0  0  0  0  0  0  0  0  0  0  0
    7.3260   -7.7222   17.8451 C   0  0  0  0  0  0  0  0  0  0  0  0
    0.2959   -6.6800   27.8950 C   0  0  0  0  0  0  0  0  0  0  0  0
    4.2859   -7.5832   16.1149 C   0  0  0  0  0  0  0  0  0  0  0  0
    3.2275   -8.0502   16.4452 C   0  0  0  0  0  0  0  0  0  0  0  0
    5.2847   -7.5245   16.3002 C   0  0  0  0  0  0  0  0  0  0  0  0
    2.0361   -7.2399   15.4618 C   0  0  0  0  0  0  0  0  0  0  0  0
   -0.3765   -5.8543   26.7260 C   0  0  0  0  0  0  0  0  0  0  0  0
    3.6538   -8.9832   17.1727 C   0  0  0  0  0  0  0  0  0  0  0  0
    0.4617   -4.8037   27.4425 C   0  0  0  0  0  0  0  0  0  0  0  0
    1.3542   -5.1840   27.6185 C   0  0  0  0  0  0  0  0  0  0  0  0
    4.7954   -7.4043   26.8002 C   0  0  0  0  0  0  0  0  0  0  0  0
    6.1604   -8.3446   27.7771 C   0  0  0  0  0  0  0  0  0  0  0  0
    5.6381   -8.7589   28.1476 C   0  0  0  0  0  0  0  0  0  0  0  0
    1.7130   -6.9208   27.1783 C   0  0  0  0  0  0  0  0  0  0  0  0
    1.6729   -6.7521   27.5117 C   0  0  0  0  0  0  0  0  0  0  0  0
    1.2938   -8.2740   15.9503 C   0  0  0  0  0  0  0  0  0  0  0  0
    7.7211   -6.5050   16.0949 C   0  0  0  0  0  0  0  0  0  0  0  0
    2.6063   -8.5694   28.5372 C   0  0  0  0  0  0  0  0  0  0  0  0
    3.7421   -7.8297   27.4196 C   0  0  0  0  0  0  0  0  0  0  0  0
    0.3075   -8.0271   15.3350 C   0  0  0  0  0  0  0  0  0  0  0  0
    4.6095   -9.2495   28.6684 C   0  0  0  0  0  0  0  0  0  0  0  0
  1 23  4  0
  2 24  4  0
  3 15  4  0
  4 14  1  0
  5  8  4  0
  6 18  4  0
  6 26  4  0
  7  8  4  0
  7 12  4  0
  9 14  1  0
  9 22  1  0
 10 11  4  0
 10 12  4  0
 11 13  4  0
 11 15  4  0
 13 23  4  0
 16 17  1  0
 18 26  4  0
 19 20  4  0
 20 28  4  0
 21 22  1  0
 23 27  1  0
M  END
$$$$

 Created by Python create_sdf_string function

 28 33  0  0  0  0  0  0  0  0999 V2000
    1.0265   -8.8544   16.4776 O   0  0  0  0  0  0  0  0  0  0  0  0
    5.0913   -8.5554   18.1515 C   0  0  0  0  0  0  0  0  0  0  0  0
    8.0697   -6.8158   17.3320 C   0  0  0  0  0  0  0  0  0  0  0  0
    5.1685   -6.8463   26.5724 P   0  0  0  0  0  0  0  0  0  0  0  0
    7.3596   -7.5548   17.6210 C   0  0  0  0  0  0  0  0  0  0  0  0
    0.6050   -6.5744   28.0353 C   0  0  0  0  0  0  0  0  0  0  0  0
    3.7590   -8.1796   16.8762 C   0  0  0  0  0  0  0  0  0  0  0  0
   -2.0016   -6.2139   27.5891 S   0  0  0  0  0  0  0  0  0  0  0  0
    3.7568   -9.0322   17.3777 C   0  0  0  0  0  0  0  0  0  0  0  0
    2.5524   -6.0967   27.2552 C   0  0  0  0  0  0  0  0  0  0  0  0
    6.0994   -8.2503   26.6513 P   0  0  0  0  0  0  0  0  0  0  0  0
    2.9796   -6.6382   26.3710 F   0  0  0  0  0  0  0  0  0  0  0  0
    1.3732   -8.1069   15.8249 C   0  0  0  0  0  0  0  0  0  0  0  0
    7.3521   -6.4443   15.9769 C   0  0  0  0  0  0  0  0  0  0  0  0
    2.4041   -8.7215   30.1900 C   0  0  0  0  0  0  0  0  0  0  0  0
    5.9291   -8.3015   29.6910 F   0  0  0  0  0  0  0  0  0  0  0  0
    6.0730   -6.8413   16.3138 He  0  0  0  0  0  0  0  0  0  0  0  0
   -0.3328   -4.5148   27.5107 He  0  0  0  0  0  0  0  0  0  0  0  0
    7.2576   -6.8030   17.1901 He  0  0  0  0  0  0  0  0  0  0  0  0
    4.4711   -7.7871   17.5449 He  0  0  0  0  0  0  0  0  0  0  0  0
    5.4634   -6.9450   15.5362 He  0  0  0  0  0  0  0  0  0  0  0  0
    1.7453   -7.3263   15.8410 He  0  0  0  0  0  0  0  0  0  0  0  0
    0.3894   -4.6329   27.3831 He  0  0  0  0  0  0  0  0  0  0  0  0
    4.8955   -7.5065   27.7563 He  0  0  0  0  0  0  0  0  0  0  0  0
    5.7600   -9.3094   27.9441 He  0  0  0  0  0  0  0  0  0  0  0  0
    2.3542   -7.1326   28.0895 He  0  0  0  0  0  0  0  0  0  0  0  0
    3.8913   -7.1399   27.2701 He  0  0  0  0  0  0  0  0  0  0  0  0
    0.2013   -8.8588   15.3377 He  0  0  0  0  0  0  0  0  0  0  0  0
  1 13  4  0
  1 14  4  0
  2  7  4  0
  2  9  2  0
  2 12  4  0
  2 16  3  0
  3  5  4  0
  3  6  2  0
  3  7  1  0
  3  8  1  0
  3  9  3  0
  3 12  2  0
  3 14  2  0
  4  7  4  0
  4  9  4  0
  5  7  3  0
  5 10  4  0
  5 12  4  0
  5 15  1  0
  6 12  1  0
  6 16  1  0
  7  9  1  0
  7 10  2  0
  8 10  1  0
  8 11  1  0
  8 13  2  0
  9 16  1  0
 10 13  2  0
 11 15  3  0
 11 16  2  0
 12 13  3  0
 13 16  1  0
 15 16  1  0
M  END
$$$$

 Created by Python create_sdf_string function

 28 18  0  0  0  0  0  0  0  0999 V2000
    1.3182   -8.9209   16.7024 C   0  0  0  0  0  0  0  0  0  0  0  0
    6.1548   -7.4418   16.7812 C   0  0  0  0  0  0  0  0  0  0  0  0
    5.2053   -8.3651   17.5437 C   0  0  0  0  0  0  0  0  0  0  0  0
   -0.1217   -5.0922   27.1738 C   0  0  0  0  0  0  0  0  0  0  0  0
    8.1745   -6.7916   17.4291 C   0  0  0  0  0  0  0  0  0  0  0  0
    4.9287   -7.1722   26.3551 C   0  0  0  0  0  0  0  0  0  0  0  0
    7.7543   -7.0893   17.0529 C   0  0  0  0  0  0  0  0  0  0  0  0
    7.3659   -7.4805   17.7908 C   0  0  0  0  0  0  0  0  0  0  0  0
    0.7169   -6.5065   27.9245 C   0  0  0  0  0  0  0  0  0  0  0  0
    4.4128   -8.1400   16.9594 C   0  0  0  0  0  0  0  0  0  0  0  0
    3.6249   -8.0847   16.6209 C   0  0  0  0  0  0  0  0  0  0  0  0
    5.5746   -7.1072   15.7125 C   0  0  0  0  0  0  0  0  0  0  0  0
    2.4468   -7.5835   15.9072 C   0  0  0  0  0  0  0  0  0  0  0  0
   -0.9368   -5.6602   27.8347 O   0  0  0  0  0  0  0  0  0  0  0  0
    3.3694   -8.7210   16.9118 C   0  0  0  0  0  0  0  0  0  0  0  0
    2.9346   -6.7349   27.3874 C   0  0  0  0  0  0  0  0  0  0  0  0
    0.7455   -5.0185   26.9212 C   0  0  0  0  0  0  0  0  0  0  0  0
    5.9680   -7.8385   26.8567 C   0  0  0  0  0  0  0  0  0  0  0  0
    4.9116   -8.1011   28.1310 C   0  0  0  0  0  0  0  0  0  0  0  0
    5.7409   -8.7321   28.4604 C   0  0  0  0  0  0  0  0  0  0  0  0
    2.0941   -7.1654   28.1961 C   0  0  0  0  0  0  0  0  0  0  0  0
    2.2683   -6.0436   26.8556 C   0  0  0  0  0  0  0  0  0  0  0  0
    1.5045   -8.2378   16.1624 C   0  0  0  0  0  0  0  0  0  0  0  0
    7.3802   -6.4788   15.9931 C   0  0  0  0  0  0  0  0  0  0  0  0
    3.0649   -8.1843   29.3961 C   0  0  0  0  0  0  0  0  0  0  0  0
    3.9021   -6.9770   27.0137 C   0  0  0  0  0  0  0  0  0  0  0  0
    0.3588   -8.6104   15.6377 C   0  0  0  0  0  0  0  0  0  0  0  0
    5.2493   -8.7522   29.1541 C   0  0  0  0  0  0  0  0  0  0  0  0
  1 23  4  0
  2  8  4  0
  3 10  4  0
  4 14  1  0
  4 17  1  0
  5  7  4  0
  5  8  4  0
  6 18  4  0
  6 26  4  0
 10 15  4  0
 13 23  4  0
 16 22  1  0
 16 26  4  0
 17 22  1  0
 18 19  4  0
 19 20  4  0
 19 28  1  0
 23 27  1  0
M  END
$$$$

 Created by Python create_sdf_string function

 28 53  0  0  0  0  0  0  0  0999 V2000
    1.3073   -8.4457   17.0678 C   0  0  0  0  0  0  0  0  0  0  0  0
    4.6810   -6.9037   18.0475 C   0  0  0  0  0  0  0  0  0  0  0  0
    4.9640   -8.5245   17.3647 C   0  0  0  0  0  0  0  0  0  0  0  0
    0.1283   -4.1266   27.0789 C   0  0  0  0  0  0  0  0  0  0  0  0
    8.3484   -6.5243   18.0792 C   0  0  0  0  0  0  0  0  0  0  0  0
    8.1160   -7.0658   16.7597 F   0  0  0  0  0  0  0  0  0  0  0  0
    6.8110   -7.1433   17.6826 C   0  0  0  0  0  0  0  0  0  0  0  0
   -0.5206   -7.0547   26.9263 C   0  0  0  0  0  0  0  0  0  0  0  0
    4.4906   -5.6329   15.4964 Br  0  0  0  0  0  0  0  0  0  0  0  0
    2.9961   -7.5601   15.0127 N   0  0  0  0  0  0  0  0  0  0  0  0
   -0.7917   -6.3002   29.0744 B   0  0  0  0  0  0  0  0  0  0  0  0
    3.6652   -8.2343   16.9318 C   0  0  0  0  0  0  0  0  0  0  0  0
    0.2007   -5.4025   27.3108 C   0  0  0  0  0  0  0  0  0  0  0  0
    6.2429   -7.9489   26.2553 C   0  0  0  0  0  0  0  0  0  0  0  0
    4.4056   -8.9877   27.6806 C   0  0  0  0  0  0  0  0  0  0  0  0
    5.9597   -9.8340   30.0935 C   0  0  0  0  0  0  0  0  0  0  0  0
    2.4784   -7.2171   27.8536 C   0  0  0  0  0  0  0  0  0  0  0  0
    7.5438   -6.1545   16.0765 C   0  0  0  0  0  0  0  0  0  0  0  0
    2.7167   -8.6568   28.2350 C   0  0  0  0  0  0  0  0  0  0  0  0
    4.8283   -8.5085   29.0034 F   0  0  0  0  0  0  0  0  0  0  0  0
    5.8575   -6.1781   26.4442 He  0  0  0  0  0  0  0  0  0  0  0  0
    3.5306   -8.2782   16.4341 He  0  0  0  0  0  0  0  0  0  0  0  0
    4.0575   -8.5506   16.4565 He  0  0  0  0  0  0  0  0  0  0  0  0
    4.7690   -9.1165   27.4086 He  0  0  0  0  0  0  0  0  0  0  0  0
    1.6278   -6.5909   27.9918 He  0  0  0  0  0  0  0  0  0  0  0  0
    1.7436   -8.1261   15.8289 He  0  0  0  0  0  0  0  0  0  0  0  0
    3.4512   -9.0269   30.5948 He  0  0  0  0  0  0  0  0  0  0  0  0
    0.1834   -8.4477   16.2215 He  0  0  0  0  0  0  0  0  0  0  0  0
  1  8  4  0
  1  9  1  0
  1 14  4  0
  1 16  2  0
  1 19  1  0
  2  3  1  0
  2  4  4  0
  2  5  1  0
  2  6  4  0
  2  7  4  0
  2  8  4  0
  2 12  4  0
  2 13  4  0
  2 17  1  0
  2 18  4  0
  3 17  1  0
  3 19  1  0
  4  8  3  0
  4 13  3  0
  4 15  2  0
  4 18  4  0
  5  6  4  0
  5 11  1  0
  5 17  4  0
  5 18  1  0
  5 19  2  0
  5 20  3  0
  6 16  3  0
  7 13  2  0
  7 15  2  0
  8 13  1  0
  8 18  3  0
  9 12  3  0
  9 19  1  0
  9 20  3  0
 10 13  3  0
 10 15  3  0
 10 16  1  0
 10 20  2  0
 11 15  2  0
 11 16  4  0
 11 17  2  0
 11 18  2  0
 11 20  1  0
 12 14  4  0
 12 15  2  0
 12 16  2  0
 12 20  4  0
 13 15  3  0
 14 15  4  0
 15 19  4  0
 16 19  2  0
 17 19  2  0
M  END
$$$$

 Created by Python create_sdf_string function

 28 22  0  0  0  0  0  0  0  0999 V2000
    1.7216   -9.0469   16.8414 C   0  0  0  0  0  0  0  0  0  0  0  0
    5.9312   -7.6417   17.2899 C   0  0  0  0  0  0  0  0  0  0  0  0
    5.3406   -8.3503   17.4708 C   0  0  0  0  0  0  0  0  0  0  0  0
    0.2795   -4.8090   27.0678 C   0  0  0  0  0  0  0  0  0  0  0  0
    8.1527   -6.9217   17.7936 C   0  0  0  0  0  0  0  0  0  0  0  0
    4.7628   -7.0462   26.3361 C   0  0  0  0  0  0  0  0  0  0  0  0
    7.9800   -6.4865   16.9759 C   0  0  0  0  0  0  0  0  0  0  0  0
    6.8401   -7.5148   17.9321 C   0  0  0  0  0  0  0  0  0  0  0  0
    0.2560   -6.2819   27.6584 C   0  0  0  0  0  0  0  0  0  0  0  0
    3.6306   -7.9243   16.3568 C   0  0  0  0  0  0  0  0  0  0  0  0
    3.5264   -8.7290   16.9233 C   0  0  0  0  0  0  0  0  0  0  0  0
    5.4619   -6.8470   15.4264 C   0  0  0  0  0  0  0  0  0  0  0  0
    2.4413   -7.5363   15.3849 C   0  0  0  0  0  0  0  0  0  0  0  0
   -0.2520   -6.4073   28.6833 O   0  0  0  0  0  0  0  0  0  0  0  0
    4.0502   -8.0226   16.6951 C   0  0  0  0  0  0  0  0  0  0  0  0
    5.4211   -8.4273   27.6901 C   0  0  0  0  0  0  0  0  0  0  0  0
    0.6518   -5.8053   27.3223 C   0  0  0  0  0  0  0  0  0  0  0  0
    5.5045   -7.6994   26.5737 C   0  0  0  0  0  0  0  0  0  0  0  0
    4.2015   -8.2292   27.9923 C   0  0  0  0  0  0  0  0  0  0  0  0
    5.7423   -9.5301   29.5522 C   0  0  0  0  0  0  0  0  0  0  0  0
    2.6148   -7.3550   27.6207 C   0  0  0  0  0  0  0  0  0  0  0  0
    1.8394   -6.5468   27.5581 C   0  0  0  0  0  0  0  0  0  0  0  0
    1.4585   -8.2242   16.0028 C   0  0  0  0  0  0  0  0  0  0  0  0
    7.1810   -6.4607   16.0484 C   0  0  0  0  0  0  0  0  0  0  0  0
    3.7077   -9.1706   29.8752 O   0  0  0  0  0  0  0  0  0  0  0  0
    3.2163   -8.1065   28.0341 C   0  0  0  0  0  0  0  0  0  0  0  0
    0.1616   -8.3998   15.9744 C   0  0  0  0  0  0  0  0  0  0  0  0
    4.9893   -8.9289   28.8261 C   0  0  0  0  0  0  0  0  0  0  0  0
  1 11  4  0
  1 23  4  0
  2  3  1  0
  2  8  4  0
  4 17  1  0
  5  7  4  0
  5  8  4  0
  6 18  4  0
  7 24  4  0
  9 17  1  0
 10 13  4  0
 10 15  4  0
 12 24  4  0
 13 23  4  0
 16 18  4  0
 16 28  4  0
 17 22  1  0
 19 26  4  0
 20 28  1  0
 21 22  1  0
 21 26  4  0
 23 27  1  0
M  END
$$$$

 Created by Python create_sdf_string function

 28 51  0  0  0  0  0  0  0  0999 V2000
    1.8432   -9.4969   16.6015 C   0  0  0  0  0  0  0  0  0  0  0  0
    0.5554   -3.2410   27.9602 C   0  0  0  0  0  0  0  0  0  0  0  0
    8.2603   -7.0458   17.9071 Cl  0  0  0  0  0  0  0  0  0  0  0  0
    4.5222   -7.3263   25.4727 Cl  0  0  0  0  0  0  0  0  0  0  0  0
    7.1356   -5.6253   16.5501 C   0  0  0  0  0  0  0  0  0  0  0  0
    6.8725   -7.4245   18.1137 C   0  0  0  0  0  0  0  0  0  0  0  0
    0.6216   -5.4256   26.7541 N   0  0  0  0  0  0  0  0  0  0  0  0
    3.5312   -7.4632   17.4342 C   0  0  0  0  0  0  0  0  0  0  0  0
    4.3820   -7.3180   15.2067 C   0  0  0  0  0  0  0  0  0  0  0  0
    2.5274   -7.8659   14.6375 C   0  0  0  0  0  0  0  0  0  0  0  0
    4.2975   -7.6691   16.3852 C   0  0  0  0  0  0  0  0  0  0  0  0
    5.6009   -8.8102   27.5894 O   0  0  0  0  0  0  0  0  0  0  0  0
    6.4013   -7.8721   26.0601 C   0  0  0  0  0  0  0  0  0  0  0  0
    4.1903   -7.2038   27.9563 C   0  0  0  0  0  0  0  0  0  0  0  0
    7.4221   -8.8130   30.1428 C   0  0  0  0  0  0  0  0  0  0  0  0
    1.7821   -7.9436   15.7756 C   0  0  0  0  0  0  0  0  0  0  0  0
    6.9733   -6.4104   15.8870 C   0  0  0  0  0  0  0  0  0  0  0  0
    4.6568   -7.5041   28.1895 I   0  0  0  0  0  0  0  0  0  0  0  0
   -0.5377   -9.7569   16.0283 F   0  0  0  0  0  0  0  0  0  0  0  0
    6.7471   -7.7342   17.4544 He  0  0  0  0  0  0  0  0  0  0  0  0
    5.1598   -8.3276   17.5012 He  0  0  0  0  0  0  0  0  0  0  0  0
    3.7922  -10.3293   17.6132 He  0  0  0  0  0  0  0  0  0  0  0  0
   -0.7518   -6.9758   28.7045 He  0  0  0  0  0  0  0  0  0  0  0  0
    1.1631   -5.3246   28.3829 He  0  0  0  0  0  0  0  0  0  0  0  0
    3.0868   -7.3050   27.3999 He  0  0  0  0  0  0  0  0  0  0  0  0
    2.1910   -6.7657   26.4771 He  0  0  0  0  0  0  0  0  0  0  0  0
    4.0517   -9.7648   29.8493 He  0  0  0  0  0  0  0  0  0  0  0  0
    3.8173   -9.4583   27.8306 He  0  0  0  0  0  0  0  0  0  0  0  0
  1  5  2  0
  1  8  4  0
  1 16  4  0
  2  6  2  0
  2  9  3  0
  2 11  3  0
  3  4  1  0
  3  6  4  0
  3  9  1  0
  3 10  2  0
  4 10  3  0
  4 14  2  0
  4 15  4  0
  4 16  1  0
  5  8  4  0
  5  9  1  0
  5 10  4  0
  5 16  1  0
  5 17  3  0
  5 18  3  0
  5 19  3  0
  6  8  2  0
  6  9  2  0
  6 12  4  0
  6 15  1  0
  6 19  2  0
  7 11  3  0
  7 12  4  0
  7 16  3  0
  8  9  1  0
  8 10  4  0
  8 11  4  0
  8 17  3  0
  8 19  4  0
  9 12  2  0
  9 13  4  0
  9 19  2  0
 10 13  2  0
 10 15  1  0
 10 16  1  0
 11 13  3  0
 11 18  4  0
 11 19  2  0
 12 13  1  0
 12 14  2  0
 12 15  2  0
 12 18  2  0
 13 15  4  0
 14 19  3  0
 15 16  4  0
 16 17  4  0
M  END
$$$$

 Created by Python create_sdf_string function

 28 25  0  0  0  0  0  0  0  0999 V2000
    1.8004   -9.5271   16.8284 C   0  0  0  0  0  0  0  0  0  0  0  0
    6.2080   -7.7428   17.3019 C   0  0  0  0  0  0  0  0  0  0  0  0
    5.4680   -8.1782   17.3267 C   0  0  0  0  0  0  0  0  0  0  0  0
    0.7262   -4.3001   27.8202 C   0  0  0  0  0  0  0  0  0  0  0  0
    8.0057   -6.9000   17.7597 N   0  0  0  0  0  0  0  0  0  0  0  0
    4.5456   -7.3365   25.9662 C   0  0  0  0  0  0  0  0  0  0  0  0
    7.5895   -6.4183   16.5772 C   0  0  0  0  0  0  0  0  0  0  0  0
    7.1775   -7.6394   17.9792 C   0  0  0  0  0  0  0  0  0  0  0  0
    0.7968   -5.7620   26.4387 N   0  0  0  0  0  0  0  0  0  0  0  0
    3.4981   -8.1360   16.3052 C   0  0  0  0  0  0  0  0  0  0  0  0
    3.3995   -9.3942   17.3338 C   0  0  0  0  0  0  0  0  0  0  0  0
    4.4427   -7.4062   15.7043 C   0  0  0  0  0  0  0  0  0  0  0  0
    2.1468   -7.7915   15.2877 C   0  0  0  0  0  0  0  0  0  0  0  0
    0.2174   -6.5401   28.3837 O   0  0  0  0  0  0  0  0  0  0  0  0
    4.1922   -8.0145   16.4859 C   0  0  0  0  0  0  0  0  0  0  0  0
    5.8488   -8.4964   27.6428 C   0  0  0  0  0  0  0  0  0  0  0  0
    0.9743   -5.5361   27.6852 C   0  0  0  0  0  0  0  0  0  0  0  0
    5.6857   -7.8418   26.4266 C   0  0  0  0  0  0  0  0  0  0  0  0
    3.7137   -7.4459   27.5557 C   0  0  0  0  0  0  0  0  0  0  0  0
    6.5512   -9.1268   29.4769 C   0  0  0  0  0  0  0  0  0  0  0  0
    2.7996   -6.9261   27.2610 C   0  0  0  0  0  0  0  0  0  0  0  0
    1.9870   -6.2841   26.9464 C   0  0  0  0  0  0  0  0  0  0  0  0
    1.4922   -8.6503   15.8754 C   0  0  0  0  0  0  0  0  0  0  0  0
    6.7438   -6.6893   16.0346 C   0  0  0  0  0  0  0  0  0  0  0  0
    4.7510   -9.4700   29.6201 C   0  0  0  0  0  0  0  0  0  0  0  0
    4.2396   -8.0823   28.1756 C   0  0  0  0  0  0  0  0  0  0  0  0
    0.3330   -9.3292   16.1523 C   0  0  0  0  0  0  0  0  0  0  0  0
    4.5151   -8.7731   28.3237 C   0  0  0  0  0  0  0  0  0  0  0  0
  1 11  4  0
  1 23  4  0
  2  3  1  0
  2  8  4  0
  2 24  4  0
  3 12  4  0
  4 17  1  0
  5  7  4  0
  5  8  4  0
  6 18  4  0
  7 24  4  0
  9 22  1  0
 10 13  4  0
 10 15  4  0
 12 15  4  0
 13 23  4  0
 14 17  1  0
 16 18  4  0
 16 28  4  0
 17 22  1  0
 19 21  1  0
 19 26  4  0
 21 22  1  0
 23 27  1  0
 26 28  4  0
M  END
$$$$

 Created by Python create_sdf_string function

 28 37  0  0  0  0  0  0  0  0999 V2000
    1.9110   -9.7800   16.9765 C   0  0  0  0  0  0  0  0  0  0  0  0
    5.4658   -8.1177   17.2141 C   0  0  0  0  0  0  0  0  0  0  0  0
    8.1816   -7.3873   17.5000 N   0  0  0  0  0  0  0  0  0  0  0  0
    5.5292   -7.4384   26.0720 Br  0  0  0  0  0  0  0  0  0  0  0  0
    6.3556   -7.0721   16.5571 O   0  0  0  0  0  0  0  0  0  0  0  0
    7.4321   -7.0891   18.5208 C   0  0  0  0  0  0  0  0  0  0  0  0
    4.0979  -10.2719   15.6680 C   0  0  0  0  0  0  0  0  0  0  0  0
    4.9540   -8.7866   16.6963 C   0  0  0  0  0  0  0  0  0  0  0  0
   -0.9621   -6.2281   27.8525 C   0  0  0  0  0  0  0  0  0  0  0  0
    3.2422   -7.1150   28.6573 P   0  0  0  0  0  0  0  0  0  0  0  0
    6.2434   -9.3102   29.9765 C   0  0  0  0  0  0  0  0  0  0  0  0
    2.6500   -7.2306   27.9861 C   0  0  0  0  0  0  0  0  0  0  0  0
    1.4077   -8.6712   15.3928 C   0  0  0  0  0  0  0  0  0  0  0  0
    5.2178   -8.1975   31.1703 F   0  0  0  0  0  0  0  0  0  0  0  0
    4.7657   -8.3032   28.1659 C   0  0  0  0  0  0  0  0  0  0  0  0
    1.2435  -10.0623   17.0411 C   0  0  0  0  0  0  0  0  0  0  0  0
    4.7516   -8.7882   28.7475 C   0  0  0  0  0  0  0  0  0  0  0  0
    7.5934   -8.7812   17.9457 He  0  0  0  0  0  0  0  0  0  0  0  0
    0.3802   -2.8335   28.9886 He  0  0  0  0  0  0  0  0  0  0  0  0
    0.9331   -4.6655   26.9064 He  0  0  0  0  0  0  0  0  0  0  0  0
    5.5139   -7.7598   16.0442 He  0  0  0  0  0  0  0  0  0  0  0  0
    1.4797   -6.9617   13.7207 He  0  0  0  0  0  0  0  0  0  0  0  0
    0.6000   -6.9366   28.0139 He  0  0  0  0  0  0  0  0  0  0  0  0
    4.1714   -8.1363   16.0239 He  0  0  0  0  0  0  0  0  0  0  0  0
    5.0526   -8.6401   27.7264 He  0  0  0  0  0  0  0  0  0  0  0  0
    6.2917   -8.0838   25.9884 He  0  0  0  0  0  0  0  0  0  0  0  0
    2.3161   -6.7009   26.7151 He  0  0  0  0  0  0  0  0  0  0  0  0
    6.6504   -6.9283   15.8901 He  0  0  0  0  0  0  0  0  0  0  0  0
  1  2  4  0
  1  4  2  0
  1 10  4  0
  1 13  4  0
  2  7  4  0
  2  9  1  0
  2 14  3  0
  2 15  1  0
  2 16  4  0
  2 17  2  0
  3  7  2  0
  3  8  2  0
  3 12  3  0
  4  8  3  0
  4  9  2  0
  4 10  2  0
  4 11  4  0
  4 12  2  0
  5  6  2  0
  5  8  4  0
  5 14  2  0
  6  8  1  0
  6 17  4  0
  7  8  1  0
  7 13  1  0
  7 16  3  0
  7 17  4  0
  8 10  1  0
  8 12  2  0
  9 12  1  0
 10 11  3  0
 10 13  3  0
 10 15  4  0
 11 13  4  0
 11 16  2  0
 11 17  1  0
 13 16  1  0
M  END
$$$$

 Created by Python create_sdf_string function

 28 20  0  0  0  0  0  0  0  0999 V2000
    1.7885   -9.5765   16.7245 C   0  0  0  0  0  0  0  0  0  0  0  0
    6.6832   -8.1499   18.2595 C   0  0  0  0  0  0  0  0  0  0  0  0
    5.6727   -8.4654   17.5125 C   0  0  0  0  0  0  0  0  0  0  0  0
    0.5692   -4.2420   28.2366 C   0  0  0  0  0  0  0  0  0  0  0  0
    8.4617   -7.0126   17.7129 N   0  0  0  0  0  0  0  0  0  0  0  0
    4.7574   -7.4666   26.1535 C   0  0  0  0  0  0  0  0  0  0  0  0
    6.9007   -7.0267   16.4834 C   0  0  0  0  0  0  0  0  0  0  0  0
    7.7888   -7.7309   17.9796 C   0  0  0  0  0  0  0  0  0  0  0  0
    1.2822   -4.9386   27.0011 C   0  0  0  0  0  0  0  0  0  0  0  0
    3.6190   -8.9997   16.3461 C   0  0  0  0  0  0  0  0  0  0  0  0
    4.9152   -8.4054   16.6538 C   0  0  0  0  0  0  0  0  0  0  0  0
    5.2879   -7.3894   15.6701 C   0  0  0  0  0  0  0  0  0  0  0  0
    2.2093   -7.9653   14.9217 C   0  0  0  0  0  0  0  0  0  0  0  0
    0.9432   -6.4140   27.7559 C   0  0  0  0  0  0  0  0  0  0  0  0
    3.8815   -8.2173   15.8814 C   0  0  0  0  0  0  0  0  0  0  0  0
    5.5484   -8.2444   27.4197 C   0  0  0  0  0  0  0  0  0  0  0  0
   -0.0164   -5.9308   27.9616 C   0  0  0  0  0  0  0  0  0  0  0  0
    5.5471   -7.9319   26.3860 C   0  0  0  0  0  0  0  0  0  0  0  0
    3.5534   -7.3846   28.0367 C   0  0  0  0  0  0  0  0  0  0  0  0
    6.1517   -9.3587   29.6236 C   0  0  0  0  0  0  0  0  0  0  0  0
    2.7039   -6.7027   27.1175 C   0  0  0  0  0  0  0  0  0  0  0  0
    2.2942   -6.4407   27.5369 C   0  0  0  0  0  0  0  0  0  0  0  0
    1.5864   -8.3133   15.3225 C   0  0  0  0  0  0  0  0  0  0  0  0
    6.5691   -6.9379   16.1449 C   0  0  0  0  0  0  0  0  0  0  0  0
    4.8606   -8.4172   30.5183 O   0  0  0  0  0  0  0  0  0  0  0  0
    4.6029   -7.9837   28.1934 C   0  0  0  0  0  0  0  0  0  0  0  0
    1.3842   -9.5061   16.5713 C   0  0  0  0  0  0  0  0  0  0  0  0
    5.3191   -8.6763   29.3592 C   0  0  0  0  0  0  0  0  0  0  0  0
  1 27  4  0
  2  3  4  0
  2  8  4  0
  3 11  4  0
  5  8  4  0
  6 18  4  0
  7 24  4  0
 10 15  4  0
 11 15  1  0
 12 24  4  0
 13 23  4  0
 14 17  1  0
 16 18  4  0
 16 26  4  0
 19 21  1  0
 19 26  4  0
 20 28  1  0
 21 22  1  0
 25 28  2  0
 26 28  1  0
M  END
$$$$

 Created by Python create_sdf_string function

 28 58  0  0  0  0  0  0  0  0999 V2000
    6.2810   -7.3806   18.5588 S   0  0  0  0  0  0  0  0  0  0  0  0
    5.7035   -8.0645   17.7586 C   0  0  0  0  0  0  0  0  0  0  0  0
    0.9147   -4.0433   25.6653 C   0  0  0  0  0  0  0  0  0  0  0  0
    8.5747   -6.8397   17.5755 N   0  0  0  0  0  0  0  0  0  0  0  0
    5.0832   -7.3047   26.3795 C   0  0  0  0  0  0  0  0  0  0  0  0
    7.5101   -7.7431   17.9003 C   0  0  0  0  0  0  0  0  0  0  0  0
    5.1084   -7.7049   17.2451 C   0  0  0  0  0  0  0  0  0  0  0  0
    5.5534   -8.4929   15.3580 N   0  0  0  0  0  0  0  0  0  0  0  0
    1.6436   -7.7674   15.2082 F   0  0  0  0  0  0  0  0  0  0  0  0
    0.6490   -6.5334   26.6633 C   0  0  0  0  0  0  0  0  0  0  0  0
    3.3613   -8.1917   15.3031 C   0  0  0  0  0  0  0  0  0  0  0  0
    5.4689   -8.6827   26.9767 N   0  0  0  0  0  0  0  0  0  0  0  0
   -0.0281   -6.4225   27.4600 O   0  0  0  0  0  0  0  0  0  0  0  0
    5.5482   -9.6224   26.8032 C   0  0  0  0  0  0  0  0  0  0  0  0
    3.7487   -6.6293   28.3487 C   0  0  0  0  0  0  0  0  0  0  0  0
    6.2284   -9.0610   29.6165 Cl  0  0  0  0  0  0  0  0  0  0  0  0
    3.1736   -7.6451   28.3961 S   0  0  0  0  0  0  0  0  0  0  0  0
    1.8368   -8.2444   15.2112 C   0  0  0  0  0  0  0  0  0  0  0  0
    6.4628   -6.7379   16.4879 C   0  0  0  0  0  0  0  0  0  0  0  0
    2.9678   -9.4694   15.8237 C   0  0  0  0  0  0  0  0  0  0  0  0
    5.2238   -8.8351   30.8891 C   0  0  0  0  0  0  0  0  0  0  0  0
    1.9243   -9.1753   16.8273 He  0  0  0  0  0  0  0  0  0  0  0  0
    7.0175   -5.2406   16.5673 He  0  0  0  0  0  0  0  0  0  0  0  0
    0.4225   -4.8430   27.9008 He  0  0  0  0  0  0  0  0  0  0  0  0
    3.7696   -7.7867   16.7143 He  0  0  0  0  0  0  0  0  0  0  0  0
    2.6719   -6.8863   26.4634 He  0  0  0  0  0  0  0  0  0  0  0  0
    5.3332   -9.9364   30.6514 He  0  0  0  0  0  0  0  0  0  0  0  0
    5.6256   -9.2973   29.0086 He  0  0  0  0  0  0  0  0  0  0  0  0
  1  3  1  0
  1  5  1  0
  1  6  4  0
  1  7  4  0
  1 17  2  0
  1 19  4  0
  1 20  2  0
  1 21  2  0
  2  3  3  0
  2 17  3  0
  3  6  2  0
  3  7  3  0
  3 11  2  0
  3 18  1  0
  4  6  4  0
  4  9  1  0
  4 12  4  0
  4 16  3  0
  4 18  2  0
  4 21  3  0
  5 11  1  0
  5 13  3  0
  6  7  1  0
  6 13  1  0
  7 10  4  0
  7 11  2  0
  7 14  2  0
  7 21  3  0
  8 11  1  0
  8 19  2  0
  9 10  4  0
  9 13  2  0
  9 15  3  0
  9 17  1  0
 10 12  1  0
 11 16  4  0
 11 21  4  0
 12 13  1  0
 12 15  4  0
 12 18  1  0
 13 14  2  0
 13 15  3  0
 13 19  1  0
 13 21  4  0
 14 15  2  0
 15 16  4  0
 15 18  2  0
 15 20  4  0
 16 17  2  0
 16 20  4  0
 16 21  3  0
 17 19  4  0
 17 21  1  0
 18 20  2  0
 18 21  3  0
 19 20  4  0
 19 21  3  0
 20 21  4  0
M  END
$$$$

 Created by Python create_sdf_string function

 28 26  0  0  0  0  0  0  0  0999 V2000
    1.9772   -9.3149   16.7056 C   0  0  0  0  0  0  0  0  0  0  0  0
    6.6216   -7.9003   18.3676 C   0  0  0  0  0  0  0  0  0  0  0  0
    5.3093   -8.2642   17.5399 C   0  0  0  0  0  0  0  0  0  0  0  0
    1.1954   -4.7439   26.4705 C   0  0  0  0  0  0  0  0  0  0  0  0
    8.3607   -6.5390   17.5623 C   0  0  0  0  0  0  0  0  0  0  0  0
    4.3297   -7.3689   26.2685 C   0  0  0  0  0  0  0  0  0  0  0  0
    7.5634   -6.3672   16.3893 C   0  0  0  0  0  0  0  0  0  0  0  0
    7.8596   -7.2928   18.2674 C   0  0  0  0  0  0  0  0  0  0  0  0
    0.9919   -5.3783   27.8365 C   0  0  0  0  0  0  0  0  0  0  0  0
    3.1663   -8.1804   16.4164 C   0  0  0  0  0  0  0  0  0  0  0  0
    5.5512   -7.8635   17.0320 C   0  0  0  0  0  0  0  0  0  0  0  0
    5.2240   -7.5626   15.5397 N   0  0  0  0  0  0  0  0  0  0  0  0
    1.7161   -7.8065   15.2443 C   0  0  0  0  0  0  0  0  0  0  0  0
    1.1033   -6.0058   27.2122 C   0  0  0  0  0  0  0  0  0  0  0  0
    3.6398   -8.1464   15.8669 C   0  0  0  0  0  0  0  0  0  0  0  0
    5.1989   -7.9977   26.5530 C   0  0  0  0  0  0  0  0  0  0  0  0
    0.8225   -6.6069   27.3498 O   0  0  0  0  0  0  0  0  0  0  0  0
    5.6080   -8.6759   27.5445 C   0  0  0  0  0  0  0  0  0  0  0  0
    3.5676   -7.6697   28.1541 C   0  0  0  0  0  0  0  0  0  0  0  0
    6.4863   -9.3038   29.8540 O   0  0  0  0  0  0  0  0  0  0  0  0
    3.1222   -6.8429   26.9382 C   0  0  0  0  0  0  0  0  0  0  0  0
    3.2616   -7.5853   28.3827 C   0  0  0  0  0  0  0  0  0  0  0  0
    1.7651   -8.0280   15.2010 C   0  0  0  0  0  0  0  0  0  0  0  0
    6.6233   -6.9236   16.2586 C   0  0  0  0  0  0  0  0  0  0  0  0
    5.1050   -9.8253   30.5038 O   0  0  0  0  0  0  0  0  0  0  0  0
    4.8714   -8.5401   28.5322 C   0  0  0  0  0  0  0  0  0  0  0  0
    2.3985   -9.3051   16.2265 C   0  0  0  0  0  0  0  0  0  0  0  0
    5.5323   -9.3381   30.1284 C   0  0  0  0  0  0  0  0  0  0  0  0
  1 10  4  0
  1 27  4  0
  2  3  4  0
  2  8  4  0
  2 11  4  0
  3 11  4  0
  4 14  1  0
  5  7  4  0
  5  8  4  0
  6 16  4  0
  6 21  4  0
  7 24  4  0
  9 14  1  0
 10 15  4  0
 12 15  4  0
 12 24  4  0
 13 23  4  0
 14 17  1  0
 16 18  4  0
 18 26  1  0
 19 22  4  0
 19 26  4  0
 20 28  1  0
 21 22  4  0
 25 28  2  0
 26 28  1  0
M  END
$$$$

 Created by Python create_sdf_string function

 28 41  0  0  0  0  0  0  0  0999 V2000
    2.0369   -9.5297   17.2125 C   0  0  0  0  0  0  0  0  0  0  0  0
    4.7371   -8.3991   17.4415 C   0  0  0  0  0  0  0  0  0  0  0  0
    1.3832   -3.6601   26.4466 N   0  0  0  0  0  0  0  0  0  0  0  0
    8.1067   -6.5706   17.6886 N   0  0  0  0  0  0  0  0  0  0  0  0
    4.1888   -7.3331   25.6945 C   0  0  0  0  0  0  0  0  0  0  0  0
    8.3390   -5.8504   16.2013 C   0  0  0  0  0  0  0  0  0  0  0  0
    7.8695   -7.3929   18.5408 C   0  0  0  0  0  0  0  0  0  0  0  0
    5.5776   -7.0153   16.0518 C   0  0  0  0  0  0  0  0  0  0  0  0
    4.3365   -7.8438   17.5948 N   0  0  0  0  0  0  0  0  0  0  0  0
    2.3977   -7.9969   14.9090 C   0  0  0  0  0  0  0  0  0  0  0  0
    0.6841   -5.2340   25.8913 C   0  0  0  0  0  0  0  0  0  0  0  0
    3.8296   -8.2265   15.9617 C   0  0  0  0  0  0  0  0  0  0  0  0
    5.4112   -8.6644   26.9846 C   0  0  0  0  0  0  0  0  0  0  0  0
    4.2051   -5.8827   26.3601 C   0  0  0  0  0  0  0  0  0  0  0  0
    1.7603   -7.8980   15.0070 O   0  0  0  0  0  0  0  0  0  0  0  0
    6.8733   -6.9408   16.2523 C   0  0  0  0  0  0  0  0  0  0  0  0
    4.1715  -11.0972   31.6601 O   0  0  0  0  0  0  0  0  0  0  0  0
    5.1955  -10.3158   30.3716 F   0  0  0  0  0  0  0  0  0  0  0  0
    7.0053   -7.7283   18.0308 He  0  0  0  0  0  0  0  0  0  0  0  0
    2.3161   -5.5087   27.9907 He  0  0  0  0  0  0  0  0  0  0  0  0
    2.6025   -7.8693   15.5626 He  0  0  0  0  0  0  0  0  0  0  0  0
    1.4463   -6.3654   27.0014 He  0  0  0  0  0  0  0  0  0  0  0  0
    5.5904   -8.2609   27.1082 He  0  0  0  0  0  0  0  0  0  0  0  0
    3.3140   -7.2264   28.6743 He  0  0  0  0  0  0  0  0  0  0  0  0
    6.6417  -10.1269   30.4770 He  0  0  0  0  0  0  0  0  0  0  0  0
    2.4393   -8.1105   30.5784 He  0  0  0  0  0  0  0  0  0  0  0  0
    5.0616   -7.5446   28.8876 He  0  0  0  0  0  0  0  0  0  0  0  0
    2.4522  -10.0113   16.2203 He  0  0  0  0  0  0  0  0  0  0  0  0
  1 10  4  0
  2  9  4  0
  2 17  1  0
  3  6  2  0
  3  9  3  0
  3 11  1  0
  3 13  2  0
  3 17  1  0
  3 18  2  0
  4  6  4  0
  4 11  1  0
  4 13  2  0
  4 14  2  0
  5  7  3  0
  5 10  2  0
  6  7  4  0
  6  9  2  0
  6 14  2  0
  6 15  4  0
  6 16  4  0
  6 17  4  0
  7 10  2  0
  7 17  4  0
  8  9  2  0
  8 15  4  0
  8 16  4  0
  9 11  2  0
  9 13  1  0
  9 15  3  0
  9 17  2  0
 10 15  4  0
 10 16  2  0
 10 18  4  0
 11 14  4  0
 11 16  3  0
 12 13  3  0
 13 15  2  0
 13 18  3  0
 14 16  1  0
 14 18  3  0
 17 18  2  0
M  END
$$$$

 Created by Python create_sdf_string function

 28 27  0  0  0  0  0  0  0  0999 V2000
    1.8661   -9.2679   16.6231 C   0  0  0  0  0  0  0  0  0  0  0  0
    6.6595   -7.7497   18.0330 C   0  0  0  0  0  0  0  0  0  0  0  0
    5.5086   -8.2219   17.7860 C   0  0  0  0  0  0  0  0  0  0  0  0
    1.5598   -4.2185   26.8069 N   0  0  0  0  0  0  0  0  0  0  0  0
    8.4659   -6.4997   17.5044 C   0  0  0  0  0  0  0  0  0  0  0  0
    4.2318   -7.2753   26.4840 C   0  0  0  0  0  0  0  0  0  0  0  0
    7.8311   -6.2278   16.3895 C   0  0  0  0  0  0  0  0  0  0  0  0
    7.9430   -7.1980   18.1346 C   0  0  0  0  0  0  0  0  0  0  0  0
    2.5883   -5.6104   27.3547 C   0  0  0  0  0  0  0  0  0  0  0  0
    3.2184   -8.1056   15.8600 C   0  0  0  0  0  0  0  0  0  0  0  0
    5.6651   -7.3067   16.1367 C   0  0  0  0  0  0  0  0  0  0  0  0
    4.6384   -8.3695   17.2783 C   0  0  0  0  0  0  0  0  0  0  0  0
    1.7624   -8.0150   15.3161 C   0  0  0  0  0  0  0  0  0  0  0  0
    0.9832   -5.3028   26.5532 C   0  0  0  0  0  0  0  0  0  0  0  0
    3.8295   -8.1174   16.2597 C   0  0  0  0  0  0  0  0  0  0  0  0
    5.3806   -8.2230   26.9117 C   0  0  0  0  0  0  0  0  0  0  0  0
    1.5927   -6.1401   26.9796 C   0  0  0  0  0  0  0  0  0  0  0  0
    5.3985   -8.4960   27.5847 C   0  0  0  0  0  0  0  0  0  0  0  0
    3.7041   -7.5670   28.6493 C   0  0  0  0  0  0  0  0  0  0  0  0
    6.2138   -9.9485   30.1234 O   0  0  0  0  0  0  0  0  0  0  0  0
    3.6754   -6.8112   27.1347 C   0  0  0  0  0  0  0  0  0  0  0  0
    3.6442   -8.4349   30.1343 C   0  0  0  0  0  0  0  0  0  0  0  0
    2.1989   -7.9204   15.0110 C   0  0  0  0  0  0  0  0  0  0  0  0
    6.6656   -6.7401   16.0347 C   0  0  0  0  0  0  0  0  0  0  0  0
    4.5477  -10.5211   30.8553 O   0  0  0  0  0  0  0  0  0  0  0  0
    4.6350   -8.4740   28.7956 C   0  0  0  0  0  0  0  0  0  0  0  0
    2.4963   -9.2627   16.6934 C   0  0  0  0  0  0  0  0  0  0  0  0
    5.0950   -9.7844   30.2935 C   0  0  0  0  0  0  0  0  0  0  0  0
  1 13  4  0
  1 27  4  0
  2  3  4  0
  2  8  4  0
  3 12  4  0
  4  9  1  0
  4 14  1  0
  5  7  4  0
  5  8  4  0
  6 16  4  0
  6 21  4  0
  7 24  4  0
  9 17  1  0
  9 21  1  0
 10 15  4  0
 10 23  4  0
 11 24  4  0
 12 15  4  0
 13 23  4  0
 14 17  1  0
 16 18  4  0
 18 26  4  0
 19 21  4  0
 19 26  4  0
 20 28  1  0
 25 28  2  0
 26 28  1  0
M  END
$$$$

 Created by Python create_sdf_string function

 28 46  0  0  0  0  0  0  0  0999 V2000
    1.9770   -9.2344   16.8631 C   0  0  0  0  0  0  0  0  0  0  0  0
    5.6289   -7.8816   17.9268 C   0  0  0  0  0  0  0  0  0  0  0  0
    1.8216   -3.5248   26.8196 N   0  0  0  0  0  0  0  0  0  0  0  0
    8.5980   -6.3631   17.6294 C   0  0  0  0  0  0  0  0  0  0  0  0
    7.5038   -6.2184   15.0638 F   0  0  0  0  0  0  0  0  0  0  0  0
    8.1122   -6.9335   18.1403 C   0  0  0  0  0  0  0  0  0  0  0  0
    3.9921   -5.9555   27.7766 F   0  0  0  0  0  0  0  0  0  0  0  0
    3.0689   -6.9293   16.2791 C   0  0  0  0  0  0  0  0  0  0  0  0
    5.8628   -8.8426   16.3269 C   0  0  0  0  0  0  0  0  0  0  0  0
    2.0028   -5.3378   27.8728 O   0  0  0  0  0  0  0  0  0  0  0  0
    3.8702   -8.1375   16.1297 C   0  0  0  0  0  0  0  0  0  0  0  0
    5.6710   -9.6796   30.1345 F   0  0  0  0  0  0  0  0  0  0  0  0
    3.9342   -6.6383   27.1363 C   0  0  0  0  0  0  0  0  0  0  0  0
    2.9406   -8.5192   30.4851 C   0  0  0  0  0  0  0  0  0  0  0  0
    2.1437   -7.5873   15.1843 F   0  0  0  0  0  0  0  0  0  0  0  0
    6.5959   -6.9619   16.2670 C   0  0  0  0  0  0  0  0  0  0  0  0
    4.7721   -7.8087   28.3183 C   0  0  0  0  0  0  0  0  0  0  0  0
    2.1541   -8.4561   17.9316 I   0  0  0  0  0  0  0  0  0  0  0  0
    6.7076   -7.9039   17.9949 He  0  0  0  0  0  0  0  0  0  0  0  0
    3.5972   -7.6193   27.7257 He  0  0  0  0  0  0  0  0  0  0  0  0
    4.8631   -6.9710   14.3383 He  0  0  0  0  0  0  0  0  0  0  0  0
    0.9043   -7.7150   14.5867 He  0  0  0  0  0  0  0  0  0  0  0  0
    6.5955   -8.3494   27.1121 He  0  0  0  0  0  0  0  0  0  0  0  0
    1.7325   -3.8115   26.9290 He  0  0  0  0  0  0  0  0  0  0  0  0
    4.4051  -10.1730   27.7425 He  0  0  0  0  0  0  0  0  0  0  0  0
    4.3588   -7.5818   27.8711 He  0  0  0  0  0  0  0  0  0  0  0  0
    3.8959  -11.2938   30.9017 He  0  0  0  0  0  0  0  0  0  0  0  0
    4.3335  -10.8366   29.0666 He  0  0  0  0  0  0  0  0  0  0  0  0
  1  5  2  0
  1 13  3  0
  1 15  2  0
  2  9  4  0
  2 13  4  0
  3  6  1  0
  3  7  4  0
  3 10  4  0
  3 11  1  0
  3 12  2  0
  3 16  2  0
  4  6  3  0
  4  8  1  0
  4 12  2  0
  4 14  1  0
  4 17  1  0
  4 18  4  0
  5  6  3  0
  5  8  3  0
  5 11  2  0
  5 12  3  0
  5 16  4  0
  5 17  2  0
  6 11  1  0
  6 18  2  0
  7  9  3  0
  7 10  3  0
  7 11  2  0
  7 13  2  0
  7 14  2  0
  8 10  2  0
  8 11  4  0
  8 12  3  0
  8 15  4  0
  8 16  2  0
  8 17  4  0
  8 18  4  0
  9 12  1  0
 10 13  4  0
 11 12  3  0
 12 15  2  0
 14 15  1  0
 14 16  1  0
 14 18  3  0
 15 17  3  0
 15 18  1  0
M  END
$$$$

 Created by Python create_sdf_string function

 28 22  0  0  0  0  0  0  0  0999 V2000
    1.2217   -8.7759   16.4818 C   0  0  0  0  0  0  0  0  0  0  0  0
    7.0798   -7.6911   18.2246 C   0  0  0  0  0  0  0  0  0  0  0  0
    5.7576   -7.9453   17.7617 C   0  0  0  0  0  0  0  0  0  0  0  0
    2.1514   -4.2869   26.9940 N   0  0  0  0  0  0  0  0  0  0  0  0
    8.5989   -6.4857   17.2319 C   0  0  0  0  0  0  0  0  0  0  0  0
    3.6243   -6.9306   27.5615 C   0  0  0  0  0  0  0  0  0  0  0  0
    7.2829   -6.4037   15.7234 C   0  0  0  0  0  0  0  0  0  0  0  0
    8.0375   -6.9787   17.9109 C   0  0  0  0  0  0  0  0  0  0  0  0
    3.5248   -5.4459   27.2823 C   0  0  0  0  0  0  0  0  0  0  0  0
    3.1565   -7.9511   16.1551 C   0  0  0  0  0  0  0  0  0  0  0  0
    5.0791   -7.1695   15.2724 N   0  0  0  0  0  0  0  0  0  0  0  0
    5.2964   -7.6913   16.7839 C   0  0  0  0  0  0  0  0  0  0  0  0
    1.1989   -8.0033   15.4369 C   0  0  0  0  0  0  0  0  0  0  0  0
    1.9912   -5.6883   27.4563 C   0  0  0  0  0  0  0  0  0  0  0  0
    3.8238   -7.7687   16.0753 C   0  0  0  0  0  0  0  0  0  0  0  0
    5.8599   -8.2028   27.1736 C   0  0  0  0  0  0  0  0  0  0  0  0
    2.1811   -4.3004   27.0480 C   0  0  0  0  0  0  0  0  0  0  0  0
    4.8744   -9.7014   28.0595 N   0  0  0  0  0  0  0  0  0  0  0  0
    4.1178   -7.6663   27.7764 C   0  0  0  0  0  0  0  0  0  0  0  0
    5.2727   -9.7663   29.6498 C   0  0  0  0  0  0  0  0  0  0  0  0
    3.4351   -6.5008   27.4142 C   0  0  0  0  0  0  0  0  0  0  0  0
    3.5832   -8.8680   30.0736 C   0  0  0  0  0  0  0  0  0  0  0  0
    2.2449   -7.3867   15.0773 C   0  0  0  0  0  0  0  0  0  0  0  0
    6.3600   -6.9249   15.9922 C   0  0  0  0  0  0  0  0  0  0  0  0
    4.1484  -11.0716   30.2121 O   0  0  0  0  0  0  0  0  0  0  0  0
    4.8890   -8.2509   27.7814 C   0  0  0  0  0  0  0  0  0  0  0  0
    2.3349   -8.9742   16.9536 C   0  0  0  0  0  0  0  0  0  0  0  0
    4.5753  -10.1772   29.2699 C   0  0  0  0  0  0  0  0  0  0  0  0
  1 13  4  0
  1 27  4  0
  2  3  4  0
  2  8  4  0
  3 12  4  0
  4 17  4  0
  5  8  4  0
  6  9  4  0
  6 21  4  0
  7 24  4  0
 10 15  4  0
 10 23  4  0
 10 27  4  0
 11 15  4  0
 11 24  4  0
 12 24  4  0
 13 23  4  0
 14 21  4  0
 16 26  1  0
 18 26  4  0
 19 26  4  0
 20 28  1  0
M  END
$$$$

 Created by Python create_sdf_string function

 28 40  0  0  0  0  0  0  0  0999 V2000
    1.3887   -8.6891   16.4069 C   0  0  0  0  0  0  0  0  0  0  0  0
    5.8445   -8.0101   17.9310 C   0  0  0  0  0  0  0  0  0  0  0  0
    3.2249   -4.2693   27.4884 C   0  0  0  0  0  0  0  0  0  0  0  0
    8.7938   -6.4769   17.6010 C   0  0  0  0  0  0  0  0  0  0  0  0
    4.2459   -6.3704   27.7919 C   0  0  0  0  0  0  0  0  0  0  0  0
    6.8378   -6.6898   15.1609 N   0  0  0  0  0  0  0  0  0  0  0  0
    3.6712   -5.6013   27.0719 N   0  0  0  0  0  0  0  0  0  0  0  0
    3.7572   -8.7992   16.1583 C   0  0  0  0  0  0  0  0  0  0  0  0
    4.6785   -6.8389   14.0404 O   0  0  0  0  0  0  0  0  0  0  0  0
    2.7307   -5.3654   25.8276 C   0  0  0  0  0  0  0  0  0  0  0  0
    5.2672   -9.7831   27.9971 N   0  0  0  0  0  0  0  0  0  0  0  0
    5.1823   -7.2992   27.5362 O   0  0  0  0  0  0  0  0  0  0  0  0
    4.0864   -9.1890   30.1723 C   0  0  0  0  0  0  0  0  0  0  0  0
    2.0504   -6.9935   14.8563 F   0  0  0  0  0  0  0  0  0  0  0  0
    6.0748   -6.6631   16.0676 C   0  0  0  0  0  0  0  0  0  0  0  0
    3.8312  -11.3234   30.4853 P   0  0  0  0  0  0  0  0  0  0  0  0
    7.5600   -7.9605   18.0024 He  0  0  0  0  0  0  0  0  0  0  0  0
    7.6677   -6.9701   18.2322 He  0  0  0  0  0  0  0  0  0  0  0  0
    5.5531   -7.2569   15.3416 He  0  0  0  0  0  0  0  0  0  0  0  0
    0.4490   -7.5241   15.9373 He  0  0  0  0  0  0  0  0  0  0  0  0
    3.5654   -8.0061   15.8737 He  0  0  0  0  0  0  0  0  0  0  0  0
    5.6386   -8.6023   26.8143 He  0  0  0  0  0  0  0  0  0  0  0  0
    2.9509   -4.1553   28.4157 He  0  0  0  0  0  0  0  0  0  0  0  0
    4.2018   -5.6705   27.3799 He  0  0  0  0  0  0  0  0  0  0  0  0
    3.5063   -9.4116   31.0245 He  0  0  0  0  0  0  0  0  0  0  0  0
    4.4877   -8.2676   27.6280 He  0  0  0  0  0  0  0  0  0  0  0  0
    2.5177   -9.9635   16.1183 He  0  0  0  0  0  0  0  0  0  0  0  0
    4.6015  -10.2674   29.8122 He  0  0  0  0  0  0  0  0  0  0  0  0
  1  2  1  0
  1  7  4  0
  1 10  2  0
  1 11  4  0
  1 16  2  0
  2  9  1  0
  2 10  4  0
  2 12  3  0
  2 14  3  0
  3  9  3  0
  3 11  3  0
  3 12  2  0
  3 15  3  0
  3 16  2  0
  4 11  2  0
  4 13  1  0
  5  7  4  0
  5  8  1  0
  5 11  4  0
  5 13  3  0
  6 11  1  0
  6 16  3  0
  7  8  3  0
  7 10  1  0
  7 12  4  0
  7 13  3  0
  7 15  2  0
  8 14  4  0
  9 12  1  0
  9 13  4  0
  9 15  4  0
  9 16  2  0
 10 11  3  0
 10 12  1  0
 10 13  2  0
 10 14  2  0
 11 13  3  0
 12 13  2  0
 12 15  4  0
 13 15  1  0
M  END
$$$$

 Created by Python create_sdf_string function

 28 26  0  0  0  0  0  0  0  0999 V2000
    1.2626   -8.8462   16.5405 C   0  0  0  0  0  0  0  0  0  0  0  0
    6.8473   -7.7605   18.1874 C   0  0  0  0  0  0  0  0  0  0  0  0
    5.8724   -7.9398   17.6514 C   0  0  0  0  0  0  0  0  0  0  0  0
    3.0215   -4.1960   27.5484 C   0  0  0  0  0  0  0  0  0  0  0  0
    8.1398   -6.4915   16.9174 C   0  0  0  0  0  0  0  0  0  0  0  0
    4.1624   -6.3757   27.8215 C   0  0  0  0  0  0  0  0  0  0  0  0
    7.2407   -6.4040   15.8606 C   0  0  0  0  0  0  0  0  0  0  0  0
    7.9082   -7.1188   17.9231 C   0  0  0  0  0  0  0  0  0  0  0  0
    3.3771   -5.7663   27.0302 N   0  0  0  0  0  0  0  0  0  0  0  0
    3.4325   -8.6459   16.1869 C   0  0  0  0  0  0  0  0  0  0  0  0
    4.8131   -6.9202   14.9264 O   0  0  0  0  0  0  0  0  0  0  0  0
    5.3040   -7.5832   16.2744 C   0  0  0  0  0  0  0  0  0  0  0  0
    1.2222   -7.6939   15.8764 C   0  0  0  0  0  0  0  0  0  0  0  0
    2.4606   -5.4560   26.5221 C   0  0  0  0  0  0  0  0  0  0  0  0
    3.7984   -7.7368   15.7328 C   0  0  0  0  0  0  0  0  0  0  0  0
    5.3222   -8.3673   26.9508 C   0  0  0  0  0  0  0  0  0  0  0  0
    2.9119   -4.2094   28.0837 C   0  0  0  0  0  0  0  0  0  0  0  0
    4.9222   -9.7782   28.3139 N   0  0  0  0  0  0  0  0  0  0  0  0
    5.3530   -7.4538   26.9767 C   0  0  0  0  0  0  0  0  0  0  0  0
    4.0928   -8.9996   29.7678 C   0  0  0  0  0  0  0  0  0  0  0  0
    3.9473   -5.9811   27.4835 C   0  0  0  0  0  0  0  0  0  0  0  0
    3.7646   -8.9917   30.4508 O   0  0  0  0  0  0  0  0  0  0  0  0
    2.4014   -7.1081   15.4010 C   0  0  0  0  0  0  0  0  0  0  0  0
    5.9630   -6.9172   15.6485 C   0  0  0  0  0  0  0  0  0  0  0  0
    4.3355  -11.2157   30.0343 O   0  0  0  0  0  0  0  0  0  0  0  0
    4.7894   -8.6393   28.0496 C   0  0  0  0  0  0  0  0  0  0  0  0
    2.4179   -9.3826   16.6542 C   0  0  0  0  0  0  0  0  0  0  0  0
    4.4346  -10.3177   29.5893 C   0  0  0  0  0  0  0  0  0  0  0  0
  1 13  4  0
  1 27  4  0
  2  3  4  0
  2  8  4  0
  3 12  4  0
  4 17  1  0
  5  7  4  0
  5  8  4  0
  6  9  4  0
  6 21  1  0
  7 24  4  0
  9 14  1  0
 10 15  4  0
 10 27  4  0
 11 15  4  0
 11 24  4  0
 12 15  1  0
 12 24  4  0
 13 23  4  0
 15 23  4  0
 16 19  2  0
 16 26  1  0
 18 26  4  0
 18 28  4  0
 20 22  4  0
 25 28  1  0
M  END
$$$$

 Created by Python create_sdf_string function

 28 66  0  0  0  0  0  0  0  0999 V2000
    1.1351   -8.6753   16.7015 C   0  0  0  0  0  0  0  0  0  0  0  0
    6.2936   -8.8351   18.3135 C   0  0  0  0  0  0  0  0  0  0  0  0
    6.0602   -7.7589   17.2046 C   0  0  0  0  0  0  0  0  0  0  0  0
    2.5108   -3.6198   28.0697 Se  0  0  0  0  0  0  0  0  0  0  0  0
    5.4279   -7.7082   27.5997 C   0  0  0  0  0  0  0  0  0  0  0  0
    7.6476   -6.2435   15.8553 Cl  0  0  0  0  0  0  0  0  0  0  0  0
    8.0750   -7.0885   17.7905 C   0  0  0  0  0  0  0  0  0  0  0  0
    2.2779   -8.4327   16.9197 C   0  0  0  0  0  0  0  0  0  0  0  0
    5.9843   -6.5074   15.1319 O   0  0  0  0  0  0  0  0  0  0  0  0
    1.5398   -7.1005   16.7119 B   0  0  0  0  0  0  0  0  0  0  0  0
    5.3983   -9.1913   27.0306 C   0  0  0  0  0  0  0  0  0  0  0  0
    6.3737  -10.0444   28.0299 O   0  0  0  0  0  0  0  0  0  0  0  0
    4.3297   -7.8122   26.0789 C   0  0  0  0  0  0  0  0  0  0  0  0
    3.7926   -8.0221   29.0690 C   0  0  0  0  0  0  0  0  0  0  0  0
    3.5011   -9.4845   30.1775 Cl  0  0  0  0  0  0  0  0  0  0  0  0
    2.2011   -7.3467   15.2102 C   0  0  0  0  0  0  0  0  0  0  0  0
    5.9639   -7.0353   15.9970 F   0  0  0  0  0  0  0  0  0  0  0  0
    3.0815  -11.0675   28.9049 O   0  0  0  0  0  0  0  0  0  0  0  0
    4.2449   -8.0700   26.6415 F   0  0  0  0  0  0  0  0  0  0  0  0
    1.9251   -9.7574   17.6475 C   0  0  0  0  0  0  0  0  0  0  0  0
    5.3713  -11.2578   30.2022 C   0  0  0  0  0  0  0  0  0  0  0  0
    8.2249   -6.3372   16.8843 He  0  0  0  0  0  0  0  0  0  0  0  0
    2.6706   -5.9970   27.7113 He  0  0  0  0  0  0  0  0  0  0  0  0
    5.1980   -6.8133   16.1471 He  0  0  0  0  0  0  0  0  0  0  0  0
    2.4905   -5.0059   26.5698 He  0  0  0  0  0  0  0  0  0  0  0  0
    3.4261   -7.4976   15.6237 He  0  0  0  0  0  0  0  0  0  0  0  0
    3.5107   -4.4334   30.1147 He  0  0  0  0  0  0  0  0  0  0  0  0
    3.5499   -5.4572   26.8027 He  0  0  0  0  0  0  0  0  0  0  0  0
  1  3  1  0
  1  5  4  0
  1  9  4  0
  1 11  2  0
  1 12  4  0
  1 13  3  0
  1 19  1  0
  2  3  2  0
  2  4  1  0
  2  5  3  0
  2  7  4  0
  2 15  4  0
  2 17  4  0
  3  4  3  0
  3 10  3  0
  3 11  4  0
  3 14  4  0
  3 19  2  0
  4  7  3  0
  4 11  3  0
  4 15  2  0
  4 19  4  0
  4 21  4  0
  5  7  3  0
  5 11  2  0
  5 12  4  0
  5 14  1  0
  5 15  1  0
  6  7  1  0
  6  9  3  0
  6 12  3  0
  6 13  4  0
  6 15  1  0
  6 17  4  0
  7  9  1  0
  7 21  2  0
  8 13  4  0
  8 15  2  0
  8 16  3  0
  8 18  1  0
  9 13  1  0
  9 15  3  0
  9 17  4  0
  9 18  3  0
 10 13  4  0
 10 16  4  0
 10 20  2  0
 11 13  1  0
 11 19  1  0
 11 20  4  0
 11 21  4  0
 12 13  4  0
 12 14  4  0
 12 15  3  0
 12 17  4  0
 12 18  3  0
 12 19  4  0
 12 21  2  0
 13 16  3  0
 13 19  4  0
 14 21  4  0
 15 18  2  0
 16 20  2  0
 18 21  1  0
 19 20  1  0
 20 21  4  0
M  END
$$$$

 Created by Python create_sdf_string function

 28 25  0  0  0  0  0  0  0  0999 V2000
    0.9115   -8.4290   16.6688 C   0  0  0  0  0  0  0  0  0  0  0  0
    6.5158   -7.8760   18.0734 C   0  0  0  0  0  0  0  0  0  0  0  0
    5.6348   -7.8258   17.3181 C   0  0  0  0  0  0  0  0  0  0  0  0
    2.5725   -4.1522   28.1498 C   0  0  0  0  0  0  0  0  0  0  0  0
    8.1467   -6.6221   17.0967 C   0  0  0  0  0  0  0  0  0  0  0  0
    4.0843   -7.7493   28.2280 C   0  0  0  0  0  0  0  0  0  0  0  0
    7.2705   -6.3361   16.0137 C   0  0  0  0  0  0  0  0  0  0  0  0
    7.8344   -7.3916   17.9907 C   0  0  0  0  0  0  0  0  0  0  0  0
    3.2408   -5.9330   27.6809 C   0  0  0  0  0  0  0  0  0  0  0  0
    3.1719   -8.9938   16.6897 C   0  0  0  0  0  0  0  0  0  0  0  0
    5.3658   -6.6495   14.9649 O   0  0  0  0  0  0  0  0  0  0  0  0
    4.9527   -7.4709   16.1574 C   0  0  0  0  0  0  0  0  0  0  0  0
    1.2393   -7.2867   16.1468 C   0  0  0  0  0  0  0  0  0  0  0  0
    2.6940   -4.9809   26.8398 C   0  0  0  0  0  0  0  0  0  0  0  0
    3.5765   -7.8661   16.2291 C   0  0  0  0  0  0  0  0  0  0  0  0
    5.0074   -9.1263   27.3440 C   0  0  0  0  0  0  0  0  0  0  0  0
    3.2938   -4.9249   29.2063 C   0  0  0  0  0  0  0  0  0  0  0  0
    5.5445  -10.0925   28.7842 O   0  0  0  0  0  0  0  0  0  0  0  0
    4.2040   -7.2648   26.1836 C   0  0  0  0  0  0  0  0  0  0  0  0
    3.9840   -7.6011   29.0862 C   0  0  0  0  0  0  0  0  0  0  0  0
    3.5035   -6.0224   26.9993 C   0  0  0  0  0  0  0  0  0  0  0  0
    3.8209   -9.1869   29.6418 C   0  0  0  0  0  0  0  0  0  0  0  0
    2.5851   -6.9972   15.8156 C   0  0  0  0  0  0  0  0  0  0  0  0
    6.0355   -6.8659   15.8484 C   0  0  0  0  0  0  0  0  0  0  0  0
    3.9718  -11.1516   29.3026 O   0  0  0  0  0  0  0  0  0  0  0  0
    4.7881   -8.0512   26.4857 C   0  0  0  0  0  0  0  0  0  0  0  0
    1.8329   -9.3728   16.9936 C   0  0  0  0  0  0  0  0  0  0  0  0
    4.7231  -10.4598   29.4506 C   0  0  0  0  0  0  0  0  0  0  0  0
  1 13  4  0
  1 27  4  0
  2  3  4  0
  2  8  4  0
  3 12  4  0
  4 14  4  0
  4 17  4  0
  5  7  4  0
  5  8  4  0
  6 20  1  0
  7 24  4  0
 10 15  4  0
 10 27  4  0
 11 12  4  0
 11 24  4  0
 12 15  1  0
 12 24  4  0
 13 23  4  0
 14 21  4  0
 15 23  4  0
 16 26  1  0
 18 28  2  0
 19 21  4  0
 19 26  4  0
 25 28  1  0
M  END
$$$$

 Created by Python create_sdf_string function

 28 65  0  0  0  0  0  0  0  0999 V2000
    0.8741   -8.4727   16.5274 C   0  0  0  0  0  0  0  0  0  0  0  0
    7.4015   -8.0710   18.8191 C   0  0  0  0  0  0  0  0  0  0  0  0
    1.9534   -3.3661   28.9749 F   0  0  0  0  0  0  0  0  0  0  0  0
    8.1759   -6.7771   17.4677 C   0  0  0  0  0  0  0  0  0  0  0  0
    3.1095   -6.8195   27.8411 P   0  0  0  0  0  0  0  0  0  0  0  0
    8.2965   -6.6801   16.0747 F   0  0  0  0  0  0  0  0  0  0  0  0
    7.3616   -7.2693   17.7778 C   0  0  0  0  0  0  0  0  0  0  0  0
    2.8501   -5.2262   27.6894 C   0  0  0  0  0  0  0  0  0  0  0  0
    5.5523   -6.1105   14.6939 O   0  0  0  0  0  0  0  0  0  0  0  0
    4.0884   -7.7742   15.8843 C   0  0  0  0  0  0  0  0  0  0  0  0
   -0.0620   -7.0515   14.2303 C   0  0  0  0  0  0  0  0  0  0  0  0
    2.8651   -4.8479   26.0893 Se  0  0  0  0  0  0  0  0  0  0  0  0
    3.5341   -7.7574   16.1463 C   0  0  0  0  0  0  0  0  0  0  0  0
    5.0959   -9.3049   27.3379 C   0  0  0  0  0  0  0  0  0  0  0  0
    5.0843   -9.4715   28.8346 O   0  0  0  0  0  0  0  0  0  0  0  0
    3.2724   -7.3531   29.8820 C   0  0  0  0  0  0  0  0  0  0  0  0
    3.4146   -7.3394   27.7825 C   0  0  0  0  0  0  0  0  0  0  0  0
    3.9392   -8.6222   28.8631 C   0  0  0  0  0  0  0  0  0  0  0  0
    2.7910   -7.2188   15.9441 C   0  0  0  0  0  0  0  0  0  0  0  0
    5.8365   -6.5853   15.9175 C   0  0  0  0  0  0  0  0  0  0  0  0
    3.9948  -10.6179   29.1481 O   0  0  0  0  0  0  0  0  0  0  0  0
    5.0772   -8.3624   26.9080 C   0  0  0  0  0  0  0  0  0  0  0  0
    1.5911   -8.9604   17.3221 C   0  0  0  0  0  0  0  0  0  0  0  0
    5.1395   -8.3011   17.3039 He  0  0  0  0  0  0  0  0  0  0  0  0
    2.7302   -8.5316   15.8682 He  0  0  0  0  0  0  0  0  0  0  0  0
    2.0284   -4.6324   29.2922 He  0  0  0  0  0  0  0  0  0  0  0  0
    4.7918   -7.1033   25.6154 He  0  0  0  0  0  0  0  0  0  0  0  0
    4.8832  -11.0716   29.8046 He  0  0  0  0  0  0  0  0  0  0  0  0
  1  5  1  0
  1 23  4  0
  2  7  4  0
  2  8  1  0
  2 10  2  0
  2 11  1  0
  2 14  2  0
  2 19  3  0
  2 23  4  0
  3  5  2  0
  3  7  1  0
  3 11  4  0
  3 12  4  0
  3 14  2  0
  3 15  2  0
  3 22  3  0
  4  6  4  0
  4  7  4  0
  4  8  1  0
  4  9  4  0
  4 16  2  0
  4 20  3  0
  4 23  4  0
  5  6  1  0
  5 11  4  0
  5 12  1  0
  5 18  3  0
  6 11  4  0
  6 14  3  0
  6 21  3  0
  6 23  1  0
  7  9  4  0
  7 10  1  0
  7 12  4  0
  7 16  2  0
  8 14  1  0
  8 15  2  0
  8 21  4  0
  8 23  4  0
  9 21  3  0
 10 13  1  0
 10 16  4  0
 10 17  2  0
 10 18  1  0
 10 22  2  0
 11 16  4  0
 11 18  1  0
 11 19  4  0
 12 16  2  0
 12 17  1  0
 12 20  4  0
 12 23  3  0
 13 19  3  0
 13 20  2  0
 13 21  4  0
 14 18  4  0
 14 20  1  0
 14 22  1  0
 15 16  4  0
 16 17  2  0
 16 19  2  0
 17 19  4  0
 18 20  2  0
 18 21  4  0
 18 22  2  0
M  END
$$$$

 Created by Python create_sdf_string function

 28 25  0  0  0  0  0  0  0  0999 V2000
    0.6721   -8.2371   16.1833 C   0  0  0  0  0  0  0  0  0  0  0  0
    6.4134   -7.9393   18.1385 C   0  0  0  0  0  0  0  0  0  0  0  0
    5.5417   -7.6524   16.9789 C   0  0  0  0  0  0  0  0  0  0  0  0
    2.1436   -4.1601   28.4470 C   0  0  0  0  0  0  0  0  0  0  0  0
    8.1223   -6.8983   17.3271 C   0  0  0  0  0  0  0  0  0  0  0  0
    3.2226   -6.4594   27.9183 C   0  0  0  0  0  0  0  0  0  0  0  0
    7.4817   -6.4460   16.2170 C   0  0  0  0  0  0  0  0  0  0  0  0
    7.5748   -7.6598   18.0600 C   0  0  0  0  0  0  0  0  0  0  0  0
    2.5897   -5.1973   27.8552 C   0  0  0  0  0  0  0  0  0  0  0  0
    2.8558   -8.7751   16.6911 C   0  0  0  0  0  0  0  0  0  0  0  0
    5.3547   -6.6596   14.9050 O   0  0  0  0  0  0  0  0  0  0  0  0
    4.5962   -7.5513   16.0806 C   0  0  0  0  0  0  0  0  0  0  0  0
    1.0217   -7.2206   15.5231 C   0  0  0  0  0  0  0  0  0  0  0  0
    2.7828   -5.2235   26.7102 C   0  0  0  0  0  0  0  0  0  0  0  0
    3.2807   -7.7212   16.0568 C   0  0  0  0  0  0  0  0  0  0  0  0
    5.0532   -9.0631   27.5521 C   0  0  0  0  0  0  0  0  0  0  0  0
    2.3278   -5.0049   29.2776 C   0  0  0  0  0  0  0  0  0  0  0  0
    5.4862  -10.1837   29.7162 O   0  0  0  0  0  0  0  0  0  0  0  0
    4.3625   -7.2196   26.2467 C   0  0  0  0  0  0  0  0  0  0  0  0
    3.0815   -7.1885   29.2790 C   0  0  0  0  0  0  0  0  0  0  0  0
    3.7016   -7.1792   27.6419 C   0  0  0  0  0  0  0  0  0  0  0  0
    4.2216   -8.5246   28.3212 C   0  0  0  0  0  0  0  0  0  0  0  0
    2.3739   -6.9027   15.3696 C   0  0  0  0  0  0  0  0  0  0  0  0
    6.1124   -6.9792   16.0170 C   0  0  0  0  0  0  0  0  0  0  0  0
    4.1419  -10.5844   29.4983 O   0  0  0  0  0  0  0  0  0  0  0  0
    5.2288   -8.2547   26.4000 C   0  0  0  0  0  0  0  0  0  0  0  0
    1.4391   -9.0907   16.7551 C   0  0  0  0  0  0  0  0  0  0  0  0
    4.5935  -10.6654   29.6454 O   0  0  0  0  0  0  0  0  0  0  0  0
  1 13  4  0
  1 27  4  0
  2  3  4  0
  2  8  4  0
  3 12  1  0
  3 24  4  0
  4 17  4  0
  5  7  4  0
  5  8  4  0
  6 21  4  0
  7 24  4  0
 10 15  4  0
 10 27  4  0
 11 12  2  0
 11 24  1  0
 12 15  1  0
 13 23  4  0
 15 23  4  0
 16 22  4  0
 16 26  4  0
 18 28  1  0
 19 21  4  0
 19 26  4  0
 21 22  4  0
 25 28  2  0
M  END
$$$$

 Created by Python create_sdf_string function

 28 37  0  0  0  0  0  0  0  0999 V2000
    0.3550   -8.4435   16.1945 O   0  0  0  0  0  0  0  0  0  0  0  0
    2.0075   -4.3671   28.5549 F   0  0  0  0  0  0  0  0  0  0  0  0
    7.9029   -6.8070   17.0782 C   0  0  0  0  0  0  0  0  0  0  0  0
    2.2744   -6.4016   28.2671 N   0  0  0  0  0  0  0  0  0  0  0  0
    7.8020   -6.7791   16.6148 F   0  0  0  0  0  0  0  0  0  0  0  0
    3.3972   -5.6642   28.5181 C   0  0  0  0  0  0  0  0  0  0  0  0
    2.9098   -9.1725   16.2781 C   0  0  0  0  0  0  0  0  0  0  0  0
    4.5979   -5.8279   15.9482 O   0  0  0  0  0  0  0  0  0  0  0  0
    1.5213   -7.4438   15.3673 C   0  0  0  0  0  0  0  0  0  0  0  0
    3.1587   -7.7826   16.3900 C   0  0  0  0  0  0  0  0  0  0  0  0
    4.7980   -9.2885   27.4910 C   0  0  0  0  0  0  0  0  0  0  0  0
    2.4488   -5.4732   29.4033 C   0  0  0  0  0  0  0  0  0  0  0  0
    5.6948   -9.5483   29.6006 O   0  0  0  0  0  0  0  0  0  0  0  0
    3.3488   -7.8895   27.6736 C   0  0  0  0  0  0  0  0  0  0  0  0
    2.2913   -6.6166   15.5372 C   0  0  0  0  0  0  0  0  0  0  0  0
    6.0288   -7.0711   16.4783 C   0  0  0  0  0  0  0  0  0  0  0  0
    4.9056   -8.9799   26.2879 C   0  0  0  0  0  0  0  0  0  0  0  0
    1.1291   -9.2502   16.9509 N   0  0  0  0  0  0  0  0  0  0  0  0
    6.1918   -7.3096   17.4501 He  0  0  0  0  0  0  0  0  0  0  0  0
    5.6463   -7.5965   17.1619 He  0  0  0  0  0  0  0  0  0  0  0  0
    7.6556   -7.7827   18.1943 He  0  0  0  0  0  0  0  0  0  0  0  0
    4.4534   -7.2250   16.0599 He  0  0  0  0  0  0  0  0  0  0  0  0
    2.9266   -4.6683   26.9169 He  0  0  0  0  0  0  0  0  0  0  0  0
    5.4867   -7.2454   26.9191 He  0  0  0  0  0  0  0  0  0  0  0  0
    3.3836   -7.5676   29.7058 He  0  0  0  0  0  0  0  0  0  0  0  0
    3.5796   -8.8663   27.4342 He  0  0  0  0  0  0  0  0  0  0  0  0
    5.2007  -10.5098   30.0740 He  0  0  0  0  0  0  0  0  0  0  0  0
    4.4214  -10.2954   30.3397 He  0  0  0  0  0  0  0  0  0  0  0  0
  1  7  4  0
  1  8  2  0
  1  9  3  0
  1 15  3  0
  1 18  4  0
  2  4  3  0
  2  6  3  0
  2 13  1  0
  2 14  2  0
  2 15  4  0
  3  9  3  0
  3 14  2  0
  4 15  4  0
  4 18  3  0
  5  6  2  0
  5  9  1  0
  5 11  1  0
  6 10  1  0
  6 12  2  0
  6 14  4  0
  6 15  4  0
  6 18  3  0
  7  8  1  0
  7 14  3  0
  8 10  4  0
  8 14  1  0
  8 15  2  0
  9 13  1  0
  9 15  4  0
 10 15  4  0
 11 15  1  0
 11 17  4  0
 12 13  2  0
 12 18  4  0
 13 17  4  0
 14 15  1  0
 14 16  2  0
M  END
$$$$

 Created by Python create_sdf_string function

 28 28  0  0  0  0  0  0  0  0999 V2000
    0.6224   -8.5074   16.2533 C   0  0  0  0  0  0  0  0  0  0  0  0
    6.3373   -7.9318   17.9598 C   0  0  0  0  0  0  0  0  0  0  0  0
    5.6303   -7.6330   16.9772 C   0  0  0  0  0  0  0  0  0  0  0  0
    2.0855   -4.5216   28.5049 C   0  0  0  0  0  0  0  0  0  0  0  0
    8.1964   -6.9482   17.4310 C   0  0  0  0  0  0  0  0  0  0  0  0
    2.8123   -6.4623   28.1848 N   0  0  0  0  0  0  0  0  0  0  0  0
    7.5768   -6.4748   16.3680 C   0  0  0  0  0  0  0  0  0  0  0  0
    7.6682   -7.6539   18.1783 C   0  0  0  0  0  0  0  0  0  0  0  0
    3.2712   -6.1495   27.7930 C   0  0  0  0  0  0  0  0  0  0  0  0
    2.8190   -8.9704   16.8208 C   0  0  0  0  0  0  0  0  0  0  0  0
    5.0382   -6.5811   15.2910 O   0  0  0  0  0  0  0  0  0  0  0  0
    4.6368   -7.4564   16.2444 C   0  0  0  0  0  0  0  0  0  0  0  0
    0.9706   -7.3660   15.7108 C   0  0  0  0  0  0  0  0  0  0  0  0
    2.8310   -4.8985   27.2493 C   0  0  0  0  0  0  0  0  0  0  0  0
    3.2666   -7.8138   16.2143 C   0  0  0  0  0  0  0  0  0  0  0  0
    4.9033   -9.3249   27.7086 C   0  0  0  0  0  0  0  0  0  0  0  0
    2.4346   -5.6033   29.5050 C   0  0  0  0  0  0  0  0  0  0  0  0
    5.8864   -9.9791   30.0222 O   0  0  0  0  0  0  0  0  0  0  0  0
    4.8078   -7.3485   26.3897 C   0  0  0  0  0  0  0  0  0  0  0  0
    3.1522   -7.2128   30.0365 C   0  0  0  0  0  0  0  0  0  0  0  0
    3.8150   -7.2782   27.8305 C   0  0  0  0  0  0  0  0  0  0  0  0
    4.2655   -8.6702   28.3692 C   0  0  0  0  0  0  0  0  0  0  0  0
    2.4222   -6.9806   15.5710 C   0  0  0  0  0  0  0  0  0  0  0  0
    6.2451   -6.8124   16.1537 C   0  0  0  0  0  0  0  0  0  0  0  0
    4.9271  -10.4130   29.9191 O   0  0  0  0  0  0  0  0  0  0  0  0
    5.3834   -8.4245   26.5960 C   0  0  0  0  0  0  0  0  0  0  0  0
    1.4760   -9.2752   16.8035 C   0  0  0  0  0  0  0  0  0  0  0  0
    4.5592  -10.0787   30.0412 C   0  0  0  0  0  0  0  0  0  0  0  0
  1 13  4  0
  1 27  4  0
  2  3  4  0
  2  8  4  0
  3 12  4  0
  3 24  4  0
  4 14  4  0
  4 17  4  0
  5  7  4  0
  5  8  4  0
  6  9  4  0
  7 24  4  0
  9 14  4  0
  9 21  4  0
 10 15  4  0
 10 27  4  0
 11 12  4  0
 11 24  4  0
 12 15  1  0
 13 23  4  0
 15 23  4  0
 16 22  4  0
 16 26  4  0
 17 20  4  0
 19 21  4  0
 19 26  4  0
 21 22  4  0
 25 28  2  0
M  END
$$$$

 Created by Python create_sdf_string function

 28 69  0  0  0  0  0  0  0  0999 V2000
    0.7105   -8.0826   16.4637 C   0  0  0  0  0  0  0  0  0  0  0  0
    7.1551   -7.5603   18.2096 C   0  0  0  0  0  0  0  0  0  0  0  0
    5.5706   -7.7912   17.1290 C   0  0  0  0  0  0  0  0  0  0  0  0
    2.6699   -4.1622   28.4872 C   0  0  0  0  0  0  0  0  0  0  0  0
    8.5189   -6.9673   17.8359 C   0  0  0  0  0  0  0  0  0  0  0  0
    2.1914   -6.1485   27.7920 N   0  0  0  0  0  0  0  0  0  0  0  0
    8.2033   -6.3695   17.4510 C   0  0  0  0  0  0  0  0  0  0  0  0
    8.1211   -7.6003   18.2572 C   0  0  0  0  0  0  0  0  0  0  0  0
    3.2372   -6.1083   27.2747 Cl  0  0  0  0  0  0  0  0  0  0  0  0
    3.5972   -9.2114   15.9780 C   0  0  0  0  0  0  0  0  0  0  0  0
   -0.5325   -6.5161   16.8902 P   0  0  0  0  0  0  0  0  0  0  0  0
    4.0534   -5.4856   26.1664 C   0  0  0  0  0  0  0  0  0  0  0  0
    3.5669   -7.6302   16.3987 C   0  0  0  0  0  0  0  0  0  0  0  0
    5.6051  -10.2568   27.6119 C   0  0  0  0  0  0  0  0  0  0  0  0
    3.2423   -4.8780   29.6291 C   0  0  0  0  0  0  0  0  0  0  0  0
    5.3541   -7.1700   27.1347 C   0  0  0  0  0  0  0  0  0  0  0  0
    3.6777   -6.7344   27.3069 C   0  0  0  0  0  0  0  0  0  0  0  0
    3.5456   -7.8509   28.6347 C   0  0  0  0  0  0  0  0  0  0  0  0
    2.3241   -7.2221   15.4693 C   0  0  0  0  0  0  0  0  0  0  0  0
    6.3054   -6.7234   15.7441 C   0  0  0  0  0  0  0  0  0  0  0  0
    1.3642   -9.9120   17.9096 C   0  0  0  0  0  0  0  0  0  0  0  0
    4.0018  -10.1340   30.0338 C   0  0  0  0  0  0  0  0  0  0  0  0
    5.2045   -6.5156   15.1447 He  0  0  0  0  0  0  0  0  0  0  0  0
    5.1304   -6.8472   15.6014 He  0  0  0  0  0  0  0  0  0  0  0  0
    6.3415  -10.0194   29.3211 He  0  0  0  0  0  0  0  0  0  0  0  0
    3.7772   -7.8794   29.0267 He  0  0  0  0  0  0  0  0  0  0  0  0
    5.5835  -10.7946   29.7420 He  0  0  0  0  0  0  0  0  0  0  0  0
    4.2921   -8.6546   26.6588 He  0  0  0  0  0  0  0  0  0  0  0  0
  1 11  2  0
  1 14  4  0
  2  3  2  0
  2  8  3  0
  2  9  3  0
  2 15  3  0
  2 17  3  0
  2 21  4  0
  2 22  2  0
  3  7  4  0
  3 10  3  0
  3 12  3  0
  3 14  3  0
  3 16  4  0
  3 17  3  0
  3 20  4  0
  4  5  4  0
  4  6  2  0
  4 11  4  0
  4 12  4  0
  4 13  3  0
  4 15  3  0
  4 17  3  0
  4 21  2  0
  4 22  4  0
  5  7  4  0
  5  8  2  0
  5 17  3  0
  6  9  4  0
  6 10  4  0
  6 12  1  0
  6 13  3  0
  6 15  1  0
  6 16  2  0
  6 17  1  0
  7  9  1  0
  7 22  4  0
  8 13  2  0
  8 17  1  0
  8 18  3  0
  9 10  3  0
  9 15  1  0
  9 17  4  0
  9 19  1  0
  9 21  3  0
  9 22  3  0
 10 16  3  0
 10 18  2  0
 10 19  4  0
 10 21  3  0
 11 20  3  0
 12 13  2  0
 12 16  3  0
 12 22  3  0
 13 14  4  0
 13 16  2  0
 13 18  3  0
 13 19  4  0
 14 18  4  0
 14 19  1  0
 14 21  4  0
 15 20  2  0
 15 21  2  0
 16 17  1  0
 16 22  4  0
 17 18  4  0
 17 19  3  0
 17 22  1  0
 20 21  2  0
M  END
$$$$

 Created by Python create_sdf_string function

 28 28  0  0  0  0  0  0  0  0999 V2000
    1.0564   -8.0385   16.5046 C   0  0  0  0  0  0  0  0  0  0  0  0
    6.3500   -8.0286   17.9815 C   0  0  0  0  0  0  0  0  0  0  0  0
    5.8582   -7.5317   16.8619 C   0  0  0  0  0  0  0  0  0  0  0  0
    2.7050   -4.1669   28.1944 C   0  0  0  0  0  0  0  0  0  0  0  0
    8.3801   -6.8645   17.7127 C   0  0  0  0  0  0  0  0  0  0  0  0
    2.6403   -5.7241   28.0912 N   0  0  0  0  0  0  0  0  0  0  0  0
    7.8150   -6.3905   16.5904 C   0  0  0  0  0  0  0  0  0  0  0  0
    7.6710   -7.7248   18.2649 C   0  0  0  0  0  0  0  0  0  0  0  0
    3.4427   -6.1962   27.3469 C   0  0  0  0  0  0  0  0  0  0  0  0
    3.1317   -8.8090   16.7063 C   0  0  0  0  0  0  0  0  0  0  0  0
    4.7409   -6.8804   15.1879 C   0  0  0  0  0  0  0  0  0  0  0  0
    4.7431   -7.4741   16.1182 C   0  0  0  0  0  0  0  0  0  0  0  0
    0.3232   -7.4109   16.5160 C   0  0  0  0  0  0  0  0  0  0  0  0
    3.6660   -5.2608   26.8591 C   0  0  0  0  0  0  0  0  0  0  0  0
    3.4836   -7.6321   16.1186 C   0  0  0  0  0  0  0  0  0  0  0  0
    5.0058   -9.3019   28.1022 C   0  0  0  0  0  0  0  0  0  0  0  0
    2.8496   -5.4124   29.1898 C   0  0  0  0  0  0  0  0  0  0  0  0
    6.0058   -9.9891   29.5957 O   0  0  0  0  0  0  0  0  0  0  0  0
    4.8241   -7.5382   26.4314 C   0  0  0  0  0  0  0  0  0  0  0  0
    3.6818   -8.0370   29.6019 C   0  0  0  0  0  0  0  0  0  0  0  0
    3.9540   -7.1563   27.6273 C   0  0  0  0  0  0  0  0  0  0  0  0
    4.1324   -8.1474   28.6175 C   0  0  0  0  0  0  0  0  0  0  0  0
    2.3518   -7.1786   15.9175 C   0  0  0  0  0  0  0  0  0  0  0  0
    6.6122   -6.6866   16.0724 C   0  0  0  0  0  0  0  0  0  0  0  0
    5.0409  -10.0596   29.3739 C   0  0  0  0  0  0  0  0  0  0  0  0
    5.3377   -8.7336   26.8753 C   0  0  0  0  0  0  0  0  0  0  0  0
    1.5900   -9.1910   16.9411 C   0  0  0  0  0  0  0  0  0  0  0  0
    4.4122  -10.3214   30.1124 C   0  0  0  0  0  0  0  0  0  0  0  0
  1 13  4  0
  1 23  4  0
  1 27  4  0
  2  3  4  0
  2  8  4  0
  3 12  4  0
  3 24  4  0
  4 14  4  0
  4 17  4  0
  5  7  4  0
  5  8  4  0
  6  9  4  0
  7 24  4  0
  9 14  4  0
  9 21  4  0
 10 15  4  0
 10 27  4  0
 11 12  4  0
 15 23  4  0
 16 22  4  0
 16 25  4  0
 16 26  4  0
 18 25  1  0
 19 21  1  0
 19 26  4  0
 20 22  4  0
 21 22  4  0
 25 28  1  0
M  END
$$$$

 Created by Python create_sdf_string function

 28 59  0  0  0  0  0  0  0  0999 V2000
    6.3038   -7.9490   18.0565 C   0  0  0  0  0  0  0  0  0  0  0  0
    5.9221   -7.2024   16.6700 C   0  0  0  0  0  0  0  0  0  0  0  0
    8.4104   -6.5667   17.8516 C   0  0  0  0  0  0  0  0  0  0  0  0
    3.9943   -4.9133   28.0891 N   0  0  0  0  0  0  0  0  0  0  0  0
    7.4249   -5.5681   17.7720 C   0  0  0  0  0  0  0  0  0  0  0  0
    7.3503   -8.1456   18.4046 C   0  0  0  0  0  0  0  0  0  0  0  0
    4.3648   -7.1571   14.5806 C   0  0  0  0  0  0  0  0  0  0  0  0
    4.4621   -8.4934   16.3587 N   0  0  0  0  0  0  0  0  0  0  0  0
    0.4149   -7.9727   15.9940 N   0  0  0  0  0  0  0  0  0  0  0  0
    3.3213   -5.5146   26.2888 C   0  0  0  0  0  0  0  0  0  0  0  0
    3.2540   -7.2535   15.9460 C   0  0  0  0  0  0  0  0  0  0  0  0
    4.1526  -10.4937   28.9099 C   0  0  0  0  0  0  0  0  0  0  0  0
    2.6107   -6.0029   29.0169 C   0  0  0  0  0  0  0  0  0  0  0  0
    6.4865   -9.1681   29.4374 O   0  0  0  0  0  0  0  0  0  0  0  0
    4.9543   -8.4756   27.1460 P   0  0  0  0  0  0  0  0  0  0  0  0
    3.3343   -8.7648   30.4034 C   0  0  0  0  0  0  0  0  0  0  0  0
    5.7885   -9.1668   28.0989 F   0  0  0  0  0  0  0  0  0  0  0  0
    6.4520   -6.7056   16.4211 C   0  0  0  0  0  0  0  0  0  0  0  0
    5.5410  -10.3012   29.1333 C   0  0  0  0  0  0  0  0  0  0  0  0
    5.9879   -9.1664   27.5456 C   0  0  0  0  0  0  0  0  0  0  0  0
    0.2539   -8.9232   17.2605 C   0  0  0  0  0  0  0  0  0  0  0  0
    3.9514   -9.9066   31.1096 F   0  0  0  0  0  0  0  0  0  0  0  0
    0.9700   -8.1282   16.6071 He  0  0  0  0  0  0  0  0  0  0  0  0
    2.3437   -3.2052   28.2338 He  0  0  0  0  0  0  0  0  0  0  0  0
    3.8679   -8.0599   27.5560 He  0  0  0  0  0  0  0  0  0  0  0  0
    2.5405   -8.2236   16.6940 He  0  0  0  0  0  0  0  0  0  0  0  0
    4.3912   -6.6060   27.4288 He  0  0  0  0  0  0  0  0  0  0  0  0
    2.3101   -7.2613   16.0542 He  0  0  0  0  0  0  0  0  0  0  0  0
  1  2  4  0
  1  4  1  0
  1  6  4  0
  1 12  3  0
  1 13  4  0
  1 14  4  0
  1 18  3  0
  1 22  4  0
  2  7  3  0
  2  8  4  0
  2 12  2  0
  2 14  2  0
  2 19  1  0
  3  5  4  0
  3  6  4  0
  3  7  1  0
  3 14  3  0
  3 17  2  0
  4  5  4  0
  4  6  1  0
  4  9  4  0
  4 15  3  0
  4 18  2  0
  4 19  2  0
  5  8  1  0
  5 14  3  0
  5 16  2  0
  5 18  4  0
  6 20  1  0
  7  9  3  0
  7 10  4  0
  7 11  3  0
  7 12  3  0
  7 17  1  0
  8 10  3  0
  8 20  3  0
  8 21  3  0
  8 22  3  0
  9 10  2  0
  9 22  1  0
 10 11  2  0
 10 12  3  0
 10 16  3  0
 11 13  1  0
 11 16  1  0
 11 19  4  0
 12 14  3  0
 12 19  4  0
 12 21  3  0
 12 22  3  0
 13 14  1  0
 13 17  4  0
 13 18  2  0
 14 17  3  0
 14 18  4  0
 14 20  1  0
 15 16  1  0
 15 20  2  0
 17 21  4  0
M  END
$$$$

 Created by Python create_sdf_string function

 28 23  0  0  0  0  0  0  0  0999 V2000
    0.8273   -8.2733   16.3919 C   0  0  0  0  0  0  0  0  0  0  0  0
    6.1428   -8.1611   17.8642 C   0  0  0  0  0  0  0  0  0  0  0  0
    5.7442   -7.4971   16.8134 C   0  0  0  0  0  0  0  0  0  0  0  0
    2.6621   -4.1122   27.7605 C   0  0  0  0  0  0  0  0  0  0  0  0
    8.1364   -6.8300   17.9914 C   0  0  0  0  0  0  0  0  0  0  0  0
    3.1303   -5.1120   28.2645 N   0  0  0  0  0  0  0  0  0  0  0  0
    7.7755   -6.2157   16.9477 C   0  0  0  0  0  0  0  0  0  0  0  0
    7.3330   -7.8563   18.4060 C   0  0  0  0  0  0  0  0  0  0  0  0
    4.0628   -7.4390   27.8492 C   0  0  0  0  0  0  0  0  0  0  0  0
    2.4645   -8.6708   16.6690 C   0  0  0  0  0  0  0  0  0  0  0  0
    4.2540   -7.2154   15.1520 C   0  0  0  0  0  0  0  0  0  0  0  0
    4.4468   -7.7791   16.2749 N   0  0  0  0  0  0  0  0  0  0  0  0
    0.5399   -7.7737   16.1813 C   0  0  0  0  0  0  0  0  0  0  0  0
    3.3057   -5.4298   26.7754 C   0  0  0  0  0  0  0  0  0  0  0  0
    3.0343   -7.7972   16.1843 C   0  0  0  0  0  0  0  0  0  0  0  0
    4.3611  -10.1780   29.0710 C   0  0  0  0  0  0  0  0  0  0  0  0
    2.9035   -5.6675   28.9702 C   0  0  0  0  0  0  0  0  0  0  0  0
    6.3448   -9.5017   29.3830 O   0  0  0  0  0  0  0  0  0  0  0  0
    4.6658   -8.0969   27.1154 C   0  0  0  0  0  0  0  0  0  0  0  0
    3.4385   -8.1651   29.5753 C   0  0  0  0  0  0  0  0  0  0  0  0
    3.9322   -6.6579   27.1397 C   0  0  0  0  0  0  0  0  0  0  0  0
    5.3251   -9.0300   28.2751 C   0  0  0  0  0  0  0  0  0  0  0  0
    2.1906   -7.3306   15.9777 C   0  0  0  0  0  0  0  0  0  0  0  0
    6.6407   -6.5173   16.3162 C   0  0  0  0  0  0  0  0  0  0  0  0
    5.1428  -10.0880   29.5830 C   0  0  0  0  0  0  0  0  0  0  0  0
    5.9613   -8.6950   27.6060 C   0  0  0  0  0  0  0  0  0  0  0  0
    0.4843   -8.9132   17.1045 C   0  0  0  0  0  0  0  0  0  0  0  0
    3.9669   -9.8526   30.6768 C   0  0  0  0  0  0  0  0  0  0  0  0
  1 13  4  0
  1 27  4  0
  2  3  4  0
  2  8  4  0
  3 12  4  0
  3 24  4  0
  4  6  1  0
  5  7  4  0
  5  8  4  0
  6 17  1  0
  7 24  4  0
  9 19  1  0
  9 21  1  0
 10 15  4  0
 10 27  4  0
 11 12  4  0
 12 15  4  0
 13 27  4  0
 14 21  4  0
 15 23  4  0
 16 25  4  0
 19 26  1  0
 22 26  1  0
M  END
$$$$

 Created by Python create_sdf_string function

 28 39  0  0  0  0  0  0  0  0999 V2000
    1.2041   -8.4466   16.6494 C   0  0  0  0  0  0  0  0  0  0  0  0
    2.5834   -5.5546   28.2276 N   0  0  0  0  0  0  0  0  0  0  0  0
    7.4501   -7.9355   18.2973 C   0  0  0  0  0  0  0  0  0  0  0  0
    4.6081   -7.7982   27.8932 C   0  0  0  0  0  0  0  0  0  0  0  0
    3.0728   -8.5180   15.8597 C   0  0  0  0  0  0  0  0  0  0  0  0
    5.0842   -7.6238   16.9093 N   0  0  0  0  0  0  0  0  0  0  0  0
    3.1074   -5.2375   27.0225 C   0  0  0  0  0  0  0  0  0  0  0  0
    2.8774   -7.8057   16.4458 C   0  0  0  0  0  0  0  0  0  0  0  0
    4.1443  -10.0649   29.3988 C   0  0  0  0  0  0  0  0  0  0  0  0
    3.4611   -6.3132   27.9489 C   0  0  0  0  0  0  0  0  0  0  0  0
    6.2805  -10.4442   29.5534 O   0  0  0  0  0  0  0  0  0  0  0  0
    3.8142   -7.1314   26.6070 C   0  0  0  0  0  0  0  0  0  0  0  0
    3.6262   -8.5753   29.2012 F   0  0  0  0  0  0  0  0  0  0  0  0
    4.3411   -6.6616   27.2543 O   0  0  0  0  0  0  0  0  0  0  0  0
    5.0281   -8.8230   28.2888 C   0  0  0  0  0  0  0  0  0  0  0  0
    2.3583   -7.6586   16.0619 C   0  0  0  0  0  0  0  0  0  0  0  0
    6.3680   -6.3161   16.2451 C   0  0  0  0  0  0  0  0  0  0  0  0
    5.5107   -8.9334   26.6680 C   0  0  0  0  0  0  0  0  0  0  0  0
    0.4262   -9.5966   16.6290 C   0  0  0  0  0  0  0  0  0  0  0  0
    6.4506   -9.5171   17.6493 He  0  0  0  0  0  0  0  0  0  0  0  0
    5.9090   -7.4235   16.7288 He  0  0  0  0  0  0  0  0  0  0  0  0
    3.9294   -4.0231   27.5150 He  0  0  0  0  0  0  0  0  0  0  0  0
    8.7551   -7.0183   17.7808 He  0  0  0  0  0  0  0  0  0  0  0  0
    7.3643   -5.7336   17.9278 He  0  0  0  0  0  0  0  0  0  0  0  0
    4.9476   -6.6429   13.6698 He  0  0  0  0  0  0  0  0  0  0  0  0
    0.6770   -8.2097   16.3868 He  0  0  0  0  0  0  0  0  0  0  0  0
    4.6906   -9.7697   29.3451 He  0  0  0  0  0  0  0  0  0  0  0  0
    3.4194   -9.8919   31.1315 He  0  0  0  0  0  0  0  0  0  0  0  0
  1  5  2  0
  1 14  3  0
  1 18  2  0
  2  5  4  0
  2  6  3  0
  2 10  1  0
  3  4  3  0
  3  5  4  0
  3  9  4  0
  3 16  3  0
  4  7  4  0
  4 12  1  0
  5  7  1  0
  5 12  2  0
  5 17  4  0
  6 16  4  0
  7 14  4  0
  7 17  3  0
  8 14  4  0
  8 15  1  0
  8 16  4  0
  8 19  2  0
  9 11  1  0
  9 13  4  0
  9 15  4  0
  9 18  2  0
 10 14  2  0
 10 16  4  0
 10 17  3  0
 10 18  1  0
 11 13  4  0
 11 16  1  0
 11 17  1  0
 11 18  4  0
 12 18  1  0
 13 14  1  0
 15 17  1  0
 15 19  3  0
 17 18  1  0
M  END
$$$$

 Created by Python create_sdf_string function

 28 22  0  0  0  0  0  0  0  0999 V2000
    1.0931   -8.7899   16.5418 C   0  0  0  0  0  0  0  0  0  0  0  0
    6.1516   -8.3324   17.7871 C   0  0  0  0  0  0  0  0  0  0  0  0
    5.8598   -7.6126   16.7781 C   0  0  0  0  0  0  0  0  0  0  0  0
    3.5421   -4.1101   27.5519 C   0  0  0  0  0  0  0  0  0  0  0  0
    8.1908   -7.0534   18.0108 C   0  0  0  0  0  0  0  0  0  0  0  0
    2.5701   -5.6939   28.2967 N   0  0  0  0  0  0  0  0  0  0  0  0
    7.8572   -6.3964   17.1473 C   0  0  0  0  0  0  0  0  0  0  0  0
    7.3757   -8.0147   18.3837 C   0  0  0  0  0  0  0  0  0  0  0  0
    3.9460   -7.6554   27.8215 C   0  0  0  0  0  0  0  0  0  0  0  0
    3.6472   -7.9012   15.8552 C   0  0  0  0  0  0  0  0  0  0  0  0
    4.5530   -7.1168   14.8238 O   0  0  0  0  0  0  0  0  0  0  0  0
    4.6939   -7.7922   16.2475 N   0  0  0  0  0  0  0  0  0  0  0  0
    0.7113   -7.9250   16.4558 C   0  0  0  0  0  0  0  0  0  0  0  0
    3.0277   -5.0750   26.9202 C   0  0  0  0  0  0  0  0  0  0  0  0
    2.5141   -7.9760   16.1585 C   0  0  0  0  0  0  0  0  0  0  0  0
    5.1714   -9.7992   29.2293 C   0  0  0  0  0  0  0  0  0  0  0  0
    3.3428   -5.8652   27.8927 C   0  0  0  0  0  0  0  0  0  0  0  0
    6.0296  -10.7022   29.9678 O   0  0  0  0  0  0  0  0  0  0  0  0
    4.1515   -7.2650   26.6216 C   0  0  0  0  0  0  0  0  0  0  0  0
    3.5344   -8.2303   29.1957 C   0  0  0  0  0  0  0  0  0  0  0  0
    4.5449   -6.1851   27.0263 O   0  0  0  0  0  0  0  0  0  0  0  0
    5.5298   -9.3978   28.0408 C   0  0  0  0  0  0  0  0  0  0  0  0
    2.0653   -7.4753   16.2691 C   0  0  0  0  0  0  0  0  0  0  0  0
    6.7769   -6.6857   16.4096 C   0  0  0  0  0  0  0  0  0  0  0  0
    4.1684   -9.3626   29.6898 C   0  0  0  0  0  0  0  0  0  0  0  0
    5.3127   -8.6189   27.0525 C   0  0  0  0  0  0  0  0  0  0  0  0
    0.9835   -9.2606   16.6764 C   0  0  0  0  0  0  0  0  0  0  0  0
    3.5740   -9.9409   30.8668 O   0  0  0  0  0  0  0  0  0  0  0  0
  1 27  4  0
  2  3  4  0
  2  8  4  0
  3 12  1  0
  3 24  4  0
  4 14  1  0
  5  7  4  0
  5  8  4  0
  6 17  1  0
  7 24  4  0
  9 19  1  0
  9 20  4  0
 10 12  4  0
 10 15  4  0
 13 23  4  0
 15 23  4  0
 16 18  1  0
 16 22  4  0
 16 25  4  0
 20 25  4  0
 22 26  4  0
 25 28  1  0
M  END
$$$$

 Created by Python create_sdf_string function

 28 53  0  0  0  0  0  0  0  0999 V2000
    0.9790   -8.4975   16.3959 C   0  0  0  0  0  0  0  0  0  0  0  0
    6.9507   -8.2736   18.2647 Cl  0  0  0  0  0  0  0  0  0  0  0  0
    5.8340   -7.5589   17.0336 C   0  0  0  0  0  0  0  0  0  0  0  0
    5.0229   -3.7198   27.8288 C   0  0  0  0  0  0  0  0  0  0  0  0
    8.1351   -6.8285   18.3056 C   0  0  0  0  0  0  0  0  0  0  0  0
    2.1613   -5.1598   28.2833 N   0  0  0  0  0  0  0  0  0  0  0  0
    7.3786   -5.9346   17.8149 C   0  0  0  0  0  0  0  0  0  0  0  0
    7.6899   -8.0866   18.8144 C   0  0  0  0  0  0  0  0  0  0  0  0
    3.2965   -7.9949   27.2031 S   0  0  0  0  0  0  0  0  0  0  0  0
    2.9536   -7.7580   16.1651 F   0  0  0  0  0  0  0  0  0  0  0  0
    4.6619   -7.6994   15.8773 O   0  0  0  0  0  0  0  0  0  0  0  0
    3.8530   -8.2142   16.6808 N   0  0  0  0  0  0  0  0  0  0  0  0
    3.1039   -4.7728   27.1503 Cl  0  0  0  0  0  0  0  0  0  0  0  0
    2.3163   -8.0032   15.9760 C   0  0  0  0  0  0  0  0  0  0  0  0
    6.4423  -10.7828   30.5249 F   0  0  0  0  0  0  0  0  0  0  0  0
    3.5971   -8.0500   29.3856 Cl  0  0  0  0  0  0  0  0  0  0  0  0
    4.8010   -9.0663   27.2165 O   0  0  0  0  0  0  0  0  0  0  0  0
    1.7692   -7.5241   16.1266 C   0  0  0  0  0  0  0  0  0  0  0  0
    6.5536   -6.4830   16.7045 C   0  0  0  0  0  0  0  0  0  0  0  0
    4.2318  -10.1182   29.3983 C   0  0  0  0  0  0  0  0  0  0  0  0
    3.6669  -10.0117   30.6585 O   0  0  0  0  0  0  0  0  0  0  0  0
    1.0705   -9.2138   15.4506 He  0  0  0  0  0  0  0  0  0  0  0  0
    5.8111   -9.5830   29.7355 He  0  0  0  0  0  0  0  0  0  0  0  0
    2.5480   -6.4683   27.3027 He  0  0  0  0  0  0  0  0  0  0  0  0
    3.6824   -7.7610   27.5381 He  0  0  0  0  0  0  0  0  0  0  0  0
    4.6847   -5.7840   27.3227 He  0  0  0  0  0  0  0  0  0  0  0  0
    5.3894   -8.3280   27.0128 He  0  0  0  0  0  0  0  0  0  0  0  0
    1.5682   -9.5676   16.1887 He  0  0  0  0  0  0  0  0  0  0  0  0
  1 14  3  0
  2  3  4  0
  2 10  1  0
  2 14  3  0
  2 21  4  0
  3  9  2  0
  3 11  4  0
  3 12  1  0
  3 13  3  0
  3 14  4  0
  3 16  4  0
  3 17  1  0
  3 19  4  0
  4  5  4  0
  4  6  3  0
  4 12  4  0
  4 18  1  0
  4 20  2  0
  5  6  4  0
  5  8  4  0
  5 12  3  0
  6 10  1  0
  6 11  2  0
  6 12  2  0
  6 18  2  0
  7  8  3  0
  7  9  3  0
  7 11  1  0
  7 18  1  0
  7 19  4  0
  7 20  2  0
  7 21  3  0
  8 18  4  0
  8 21  1  0
  9 11  1  0
  9 16  4  0
  9 17  1  0
  9 20  3  0
 10 12  4  0
 10 13  4  0
 10 14  4  0
 10 19  1  0
 11 15  3  0
 11 16  3  0
 11 18  2  0
 12 14  2  0
 12 16  3  0
 12 18  1  0
 12 19  4  0
 12 21  1  0
 14 17  4  0
 14 18  4  0
 15 16  3  0
M  END
$$$$

 Created by Python create_sdf_string function

 28 27  0  0  0  0  0  0  0  0999 V2000
    0.6044   -8.3892   16.4920 C   0  0  0  0  0  0  0  0  0  0  0  0
    6.2035   -8.2708   18.0565 C   0  0  0  0  0  0  0  0  0  0  0  0
    5.8344   -7.5805   17.0883 C   0  0  0  0  0  0  0  0  0  0  0  0
    4.5605   -4.3497   27.8572 C   0  0  0  0  0  0  0  0  0  0  0  0
    8.2762   -7.0570   18.0710 C   0  0  0  0  0  0  0  0  0  0  0  0
    2.4624   -5.4170   28.0595 C   0  0  0  0  0  0  0  0  0  0  0  0
    7.8157   -6.3096   17.1207 C   0  0  0  0  0  0  0  0  0  0  0  0
    7.4948   -7.9781   18.4369 C   0  0  0  0  0  0  0  0  0  0  0  0
    3.5399   -7.7973   27.8665 C   0  0  0  0  0  0  0  0  0  0  0  0
    3.2768   -8.1181   16.4172 C   0  0  0  0  0  0  0  0  0  0  0  0
    4.4440   -7.7600   15.8655 O   0  0  0  0  0  0  0  0  0  0  0  0
    4.2315   -7.9871   16.7136 C   0  0  0  0  0  0  0  0  0  0  0  0
    1.1477   -9.3772   15.6554 C   0  0  0  0  0  0  0  0  0  0  0  0
    3.1780   -5.0039   27.0538 C   0  0  0  0  0  0  0  0  0  0  0  0
    2.3379   -7.8343   16.0761 C   0  0  0  0  0  0  0  0  0  0  0  0
    5.4848   -9.6639   29.1792 C   0  0  0  0  0  0  0  0  0  0  0  0
    2.3385   -6.3493   27.4049 C   0  0  0  0  0  0  0  0  0  0  0  0
    6.3105  -10.3881   30.0100 O   0  0  0  0  0  0  0  0  0  0  0  0
    4.1174   -7.7430   27.2820 C   0  0  0  0  0  0  0  0  0  0  0  0
    3.4225   -8.4929   28.9833 C   0  0  0  0  0  0  0  0  0  0  0  0
    4.5097   -5.1735   27.3967 C   0  0  0  0  0  0  0  0  0  0  0  0
    5.7755   -9.1802   27.8403 C   0  0  0  0  0  0  0  0  0  0  0  0
    1.6350   -7.4173   16.1034 C   0  0  0  0  0  0  0  0  0  0  0  0
    6.6064   -6.6214   16.5146 C   0  0  0  0  0  0  0  0  0  0  0  0
    4.2660   -9.4361   29.6299 C   0  0  0  0  0  0  0  0  0  0  0  0
    5.2065   -8.5184   27.0351 C   0  0  0  0  0  0  0  0  0  0  0  0
    1.2145   -9.4385   16.3283 C   0  0  0  0  0  0  0  0  0  0  0  0
    3.8525   -9.9996   30.7463 O   0  0  0  0  0  0  0  0  0  0  0  0
  1 23  4  0
  1 27  4  0
  2  3  4  0
  2  8  4  0
  3 12  1  0
  3 24  4  0
  4 21  1  0
  5  7  4  0
  5  8  4  0
  6 17  1  0
  7 24  4  0
  9 17  1  0
  9 19  1  0
  9 20  4  0
 10 12  4  0
 10 15  4  0
 11 12  4  0
 13 27  4  0
 14 21  1  0
 15 23  4  0
 16 18  1  0
 16 22  4  0
 16 25  4  0
 19 26  4  0
 20 25  4  0
 22 26  4  0
 25 28  1  0
M  END
$$$$

 Created by Python create_sdf_string function

 28 42  0  0  0  0  0  0  0  0999 V2000
    0.7183   -8.2617   16.3703 C   0  0  0  0  0  0  0  0  0  0  0  0
    6.0227   -7.4258   16.9995 F   0  0  0  0  0  0  0  0  0  0  0  0
    3.5612   -4.3256   26.9094 C   0  0  0  0  0  0  0  0  0  0  0  0
    8.1749   -6.7877   18.1607 C   0  0  0  0  0  0  0  0  0  0  0  0
    2.1425   -6.0915   27.2752 C   0  0  0  0  0  0  0  0  0  0  0  0
    7.7278   -6.9099   16.8645 C   0  0  0  0  0  0  0  0  0  0  0  0
    7.6212   -7.9282   18.1041 C   0  0  0  0  0  0  0  0  0  0  0  0
    3.9998   -7.1714   28.5681 C   0  0  0  0  0  0  0  0  0  0  0  0
    3.8795   -7.9021   18.4194 C   0  0  0  0  0  0  0  0  0  0  0  0
    4.2695   -7.4576   16.5760 C   0  0  0  0  0  0  0  0  0  0  0  0
    3.3204   -5.3117   27.1048 C   0  0  0  0  0  0  0  0  0  0  0  0
    2.6674   -7.7802   15.8650 C   0  0  0  0  0  0  0  0  0  0  0  0
    3.3401   -7.3839   27.4242 P   0  0  0  0  0  0  0  0  0  0  0  0
    3.2576   -9.2930   28.7088 C   0  0  0  0  0  0  0  0  0  0  0  0
    4.8470   -4.2061   27.7895 C   0  0  0  0  0  0  0  0  0  0  0  0
    5.8184   -9.1213   27.6577 C   0  0  0  0  0  0  0  0  0  0  0  0
    1.8272   -7.3308   16.1149 C   0  0  0  0  0  0  0  0  0  0  0  0
    6.3404   -9.5738   26.7412 C   0  0  0  0  0  0  0  0  0  0  0  0
    1.6864   -8.6127   16.7309 C   0  0  0  0  0  0  0  0  0  0  0  0
    3.7295   -9.3278   30.5865 O   0  0  0  0  0  0  0  0  0  0  0  0
    5.4322   -8.4877   17.8722 He  0  0  0  0  0  0  0  0  0  0  0  0
    4.2047   -7.4269   15.8517 He  0  0  0  0  0  0  0  0  0  0  0  0
    0.8415   -8.8200   15.4940 He  0  0  0  0  0  0  0  0  0  0  0  0
    5.8819  -10.7404   28.9813 He  0  0  0  0  0  0  0  0  0  0  0  0
    0.8304   -5.3877   26.6112 He  0  0  0  0  0  0  0  0  0  0  0  0
    6.0128  -10.9593   30.1686 He  0  0  0  0  0  0  0  0  0  0  0  0
    6.8031   -6.8929   16.5192 He  0  0  0  0  0  0  0  0  0  0  0  0
    4.1383   -9.6143   30.7519 He  0  0  0  0  0  0  0  0  0  0  0  0
  1 12  1  0
  1 16  2  0
  1 17  4  0
  2 10  1  0
  2 16  2  0
  2 18  3  0
  3  6  3  0
  3  9  1  0
  3 11  2  0
  3 12  2  0
  3 13  1  0
  3 15  1  0
  3 20  4  0
  4  6  4  0
  4  7  4  0
  5  6  4  0
  5 12  3  0
  5 18  3  0
  6 15  2  0
  6 17  2  0
  7 18  4  0
  7 19  1  0
  8 11  4  0
  8 12  4  0
  8 13  1  0
  8 14  2  0
  8 16  3  0
  8 17  4  0
  9 10  4  0
  9 12  4  0
  9 13  1  0
  9 14  2  0
 11 13  4  0
 11 15  1  0
 11 18  1  0
 12 13  2  0
 12 14  2  0
 12 17  4  0
 13 17  1  0
 13 18  4  0
 15 17  3  0
 15 19  1  0
M  END
$$$$

 Created by Python create_sdf_string function

 28 25  0  0  0  0  0  0  0  0999 V2000
    0.8932   -8.1308   16.4695 C   0  0  0  0  0  0  0  0  0  0  0  0
    6.2131   -8.1155   18.1310 C   0  0  0  0  0  0  0  0  0  0  0  0
    5.7839   -7.5128   16.8643 C   0  0  0  0  0  0  0  0  0  0  0  0
    3.3659   -4.4637   27.2027 C   0  0  0  0  0  0  0  0  0  0  0  0
    8.3904   -7.1396   17.8551 C   0  0  0  0  0  0  0  0  0  0  0  0
    2.1086   -6.5317   27.2385 C   0  0  0  0  0  0  0  0  0  0  0  0
    7.9562   -6.5747   16.7499 C   0  0  0  0  0  0  0  0  0  0  0  0
    7.5856   -7.8795   18.3961 C   0  0  0  0  0  0  0  0  0  0  0  0
    3.9792   -7.8851   28.0625 C   0  0  0  0  0  0  0  0  0  0  0  0
    3.4841   -8.5220   17.0999 C   0  0  0  0  0  0  0  0  0  0  0  0
    4.1765   -7.1590   15.5546 N   0  0  0  0  0  0  0  0  0  0  0  0
    4.4043   -7.7374   16.5949 C   0  0  0  0  0  0  0  0  0  0  0  0
    0.4068   -9.1816   15.6189 C   0  0  0  0  0  0  0  0  0  0  0  0
    3.4695   -5.2293   27.3834 C   0  0  0  0  0  0  0  0  0  0  0  0
    2.8031   -7.6890   16.2115 C   0  0  0  0  0  0  0  0  0  0  0  0
    5.4886   -9.9126   29.1747 C   0  0  0  0  0  0  0  0  0  0  0  0
    1.4515   -5.4798   26.7833 C   0  0  0  0  0  0  0  0  0  0  0  0
    5.9605  -10.5400   29.9501 O   0  0  0  0  0  0  0  0  0  0  0  0
    3.4107   -6.8921   27.5342 N   0  0  0  0  0  0  0  0  0  0  0  0
    3.4292   -8.7112   28.8067 C   0  0  0  0  0  0  0  0  0  0  0  0
    4.4243   -4.8927   27.7169 C   0  0  0  0  0  0  0  0  0  0  0  0
    5.6180   -9.1196   27.8938 C   0  0  0  0  0  0  0  0  0  0  0  0
    1.9888   -7.2851   15.9670 C   0  0  0  0  0  0  0  0  0  0  0  0
    6.6922   -6.7660   16.2533 C   0  0  0  0  0  0  0  0  0  0  0  0
    4.1457   -9.5734   30.1386 C   0  0  0  0  0  0  0  0  0  0  0  0
    5.5530   -8.6599   27.0474 C   0  0  0  0  0  0  0  0  0  0  0  0
    1.3984   -8.9776   16.8091 C   0  0  0  0  0  0  0  0  0  0  0  0
    3.8964   -9.5458   30.7162 O   0  0  0  0  0  0  0  0  0  0  0  0
  1 23  4  0
  1 27  4  0
  2  3  4  0
  2  8  4  0
  3 12  1  0
  3 24  4  0
  4 14  1  0
  4 21  1  0
  5  7  4  0
  5  8  4  0
  6 17  1  0
  6 19  1  0
  7 24  4  0
  9 19  1  0
  9 20  1  0
 10 12  4  0
 10 15  4  0
 11 12  4  0
 14 21  1  0
 15 23  4  0
 16 18  1  0
 16 22  1  0
 20 25  1  0
 22 26  1  0
 25 28  1  0
M  END
$$$$

 Created by Python create_sdf_string function

 28 58  0  0  0  0  0  0  0  0999 V2000
    0.7976   -7.8203   16.1787 C   0  0  0  0  0  0  0  0  0  0  0  0
    6.0222   -8.1886   17.5676 C   0  0  0  0  0  0  0  0  0  0  0  0
    5.6139   -7.3555   16.8113 C   0  0  0  0  0  0  0  0  0  0  0  0
    2.0167   -6.7115   28.0407 C   0  0  0  0  0  0  0  0  0  0  0  0
    8.4272   -6.5222   16.7358 C   0  0  0  0  0  0  0  0  0  0  0  0
    7.5598   -7.7844   18.2146 C   0  0  0  0  0  0  0  0  0  0  0  0
    4.0932   -7.2929   28.8305 C   0  0  0  0  0  0  0  0  0  0  0  0
    3.4177   -8.0408   17.7386 C   0  0  0  0  0  0  0  0  0  0  0  0
    3.0594   -6.8239   14.7936 N   0  0  0  0  0  0  0  0  0  0  0  0
    4.1182   -7.6876   17.0461 C   0  0  0  0  0  0  0  0  0  0  0  0
    0.8501  -10.1114   14.7996 C   0  0  0  0  0  0  0  0  0  0  0  0
    3.7003   -5.2911   27.4212 C   0  0  0  0  0  0  0  0  0  0  0  0
    2.1399   -7.7085   16.1460 C   0  0  0  0  0  0  0  0  0  0  0  0
    2.0094   -4.9292   26.4857 C   0  0  0  0  0  0  0  0  0  0  0  0
    5.3414  -10.6719   29.4632 O   0  0  0  0  0  0  0  0  0  0  0  0
    3.0895   -6.9486   27.7469 N   0  0  0  0  0  0  0  0  0  0  0  0
    4.8701   -4.9627   27.2625 P   0  0  0  0  0  0  0  0  0  0  0  0
    5.6887   -9.3832   26.9958 C   0  0  0  0  0  0  0  0  0  0  0  0
    1.6190   -7.3562   15.6961 C   0  0  0  0  0  0  0  0  0  0  0  0
    6.7978   -6.8913   16.2058 C   0  0  0  0  0  0  0  0  0  0  0  0
    3.6829  -10.2639   30.0605 Br  0  0  0  0  0  0  0  0  0  0  0  0
    5.7756   -8.4750   27.1079 C   0  0  0  0  0  0  0  0  0  0  0  0
    1.8163   -8.7890   15.9279 S   0  0  0  0  0  0  0  0  0  0  0  0
    3.7354   -8.8918   30.3649 O   0  0  0  0  0  0  0  0  0  0  0  0
    3.0849   -3.8752   27.2296 He  0  0  0  0  0  0  0  0  0  0  0  0
    8.3700   -6.9943   17.7050 He  0  0  0  0  0  0  0  0  0  0  0  0
    5.1875   -9.9830   29.6543 He  0  0  0  0  0  0  0  0  0  0  0  0
    4.2145   -9.7987   29.0806 He  0  0  0  0  0  0  0  0  0  0  0  0
  1  4  1  0
  1 11  1  0
  1 15  3  0
  1 16  4  0
  1 17  3  0
  1 18  1  0
  1 19  4  0
  1 23  1  0
  2  3  4  0
  2  4  2  0
  2  8  4  0
  2  9  2  0
  2 11  2  0
  2 15  4  0
  2 22  4  0
  3  8  3  0
  3 12  3  0
  3 14  4  0
  3 18  3  0
  4 13  4  0
  4 16  4  0
  4 22  2  0
  5 12  2  0
  5 15  1  0
  6 10  4  0
  6 18  2  0
  6 20  4  0
  7 11  4  0
  7 13  1  0
  7 23  2  0
  8 10  4  0
  8 16  1  0
  8 18  4  0
  8 20  1  0
  8 22  2  0
  9 10  4  0
  9 15  4  0
 10 11  2  0
 10 23  1  0
 11 22  3  0
 12 15  2  0
 12 17  1  0
 12 23  2  0
 13 14  4  0
 13 19  4  0
 13 20  1  0
 13 21  3  0
 13 22  1  0
 13 24  1  0
 14 24  2  0
 15 20  4  0
 15 24  1  0
 17 19  3  0
 17 21  1  0
 17 24  2  0
 19 24  4  0
 20 23  2  0
 21 24  1  0
M  END
$$$$

 Created by Python create_sdf_string function

 28 28  0  0  0  0  0  0  0  0999 V2000
    0.3868   -8.6734   15.8091 C   0  0  0  0  0  0  0  0  0  0  0  0
    6.0737   -8.0115   17.9162 C   0  0  0  0  0  0  0  0  0  0  0  0
    5.7450   -7.4512   16.7935 C   0  0  0  0  0  0  0  0  0  0  0  0
    3.0725   -4.1676   27.1318 C   0  0  0  0  0  0  0  0  0  0  0  0
    8.2945   -7.0149   17.6600 C   0  0  0  0  0  0  0  0  0  0  0  0
    2.2458   -6.5105   27.5824 C   0  0  0  0  0  0  0  0  0  0  0  0
    7.8609   -6.4494   16.4395 C   0  0  0  0  0  0  0  0  0  0  0  0
    7.5039   -7.8243   18.2986 C   0  0  0  0  0  0  0  0  0  0  0  0
    3.8565   -7.7217   28.4238 C   0  0  0  0  0  0  0  0  0  0  0  0
    3.7172   -8.4746   17.0800 C   0  0  0  0  0  0  0  0  0  0  0  0
    3.7407   -6.8972   15.5770 N   0  0  0  0  0  0  0  0  0  0  0  0
    4.3048   -7.5682   16.4555 C   0  0  0  0  0  0  0  0  0  0  0  0
    0.2573   -9.6750   14.9310 C   0  0  0  0  0  0  0  0  0  0  0  0
    3.8705   -4.8192   27.4294 C   0  0  0  0  0  0  0  0  0  0  0  0
    2.5014   -7.6993   15.9532 C   0  0  0  0  0  0  0  0  0  0  0  0
    5.1921   -9.7090   28.7804 C   0  0  0  0  0  0  0  0  0  0  0  0
    1.9108   -5.3018   26.9410 C   0  0  0  0  0  0  0  0  0  0  0  0
    5.5216  -10.6385   29.4863 O   0  0  0  0  0  0  0  0  0  0  0  0
    3.5725   -6.7753   27.8884 N   0  0  0  0  0  0  0  0  0  0  0  0
    4.0920   -8.9943   29.0258 C   0  0  0  0  0  0  0  0  0  0  0  0
    4.3941   -5.4925   27.5276 C   0  0  0  0  0  0  0  0  0  0  0  0
    5.6160   -9.0940   27.3569 C   0  0  0  0  0  0  0  0  0  0  0  0
    2.0751   -7.3684   15.6178 C   0  0  0  0  0  0  0  0  0  0  0  0
    6.5919   -6.7075   16.0268 C   0  0  0  0  0  0  0  0  0  0  0  0
    3.4481   -9.6531   30.1066 C   0  0  0  0  0  0  0  0  0  0  0  0
    5.6982   -8.1256   26.9579 C   0  0  0  0  0  0  0  0  0  0  0  0
    1.6119   -8.9696   16.2888 C   0  0  0  0  0  0  0  0  0  0  0  0
    3.1336   -8.6562   30.4444 O   0  0  0  0  0  0  0  0  0  0  0  0
  1 13  1  0
  1 27  1  0
  2  3  4  0
  2  8  4  0
  3 12  1  0
  3 24  4  0
  4 14  1  0
  4 17  1  0
  5  7  4  0
  5  8  4  0
  6 17  1  0
  6 19  1  0
  7 24  4  0
  9 19  1  0
  9 20  1  0
 10 12  4  0
 11 12  4  0
 11 15  4  0
 11 23  4  0
 14 21  1  0
 15 23  4  0
 16 18  2  0
 16 20  1  0
 16 22  1  0
 19 21  1  0
 20 25  1  0
 22 26  1  0
 25 28  1  0
M  END
$$$$

 Created by Python create_sdf_string function

 28 60  0  0  0  0  0  0  0  0999 V2000
    0.0752   -8.8518   15.7412 C   0  0  0  0  0  0  0  0  0  0  0  0
    6.0124   -7.8032   17.3414 C   0  0  0  0  0  0  0  0  0  0  0  0
    5.3246   -7.3606   16.9163 C   0  0  0  0  0  0  0  0  0  0  0  0
    3.8660   -4.2200   27.1944 C   0  0  0  0  0  0  0  0  0  0  0  0
    8.8073   -7.3035   17.7486 C   0  0  0  0  0  0  0  0  0  0  0  0
    8.0832   -6.2667   15.6536 C   0  0  0  0  0  0  0  0  0  0  0  0
    3.3186   -7.2119   29.3962 C   0  0  0  0  0  0  0  0  0  0  0  0
    3.0509   -7.2559   15.6219 N   0  0  0  0  0  0  0  0  0  0  0  0
    4.2807   -6.5806   16.0918 B   0  0  0  0  0  0  0  0  0  0  0  0
   -0.4038   -9.8838   14.1412 C   0  0  0  0  0  0  0  0  0  0  0  0
    4.1649   -4.7051   28.2012 C   0  0  0  0  0  0  0  0  0  0  0  0
    2.4920   -7.7917   16.0839 C   0  0  0  0  0  0  0  0  0  0  0  0
    4.6594  -10.3960   28.9210 C   0  0  0  0  0  0  0  0  0  0  0  0
    0.9348   -5.6587   27.1519 C   0  0  0  0  0  0  0  0  0  0  0  0
    5.4739  -11.0994   29.5762 O   0  0  0  0  0  0  0  0  0  0  0  0
    3.7488   -7.0702   27.5641 O   0  0  0  0  0  0  0  0  0  0  0  0
    4.4168   -5.2233   26.4476 C   0  0  0  0  0  0  0  0  0  0  0  0
    1.9929   -7.3473   15.7855 C   0  0  0  0  0  0  0  0  0  0  0  0
    6.9440   -6.0550   16.0668 C   0  0  0  0  0  0  0  0  0  0  0  0
    3.1405   -9.2596   30.2122 C   0  0  0  0  0  0  0  0  0  0  0  0
    5.7272   -7.4524   26.2210 O   0  0  0  0  0  0  0  0  0  0  0  0
    1.2784   -7.5986   15.5931 C   0  0  0  0  0  0  0  0  0  0  0  0
    3.3294   -8.5518   30.5538 O   0  0  0  0  0  0  0  0  0  0  0  0
    2.0115   -6.4037   26.7666 He  0  0  0  0  0  0  0  0  0  0  0  0
    7.5836   -7.6325   18.4996 He  0  0  0  0  0  0  0  0  0  0  0  0
    3.8242   -8.7668   17.3674 He  0  0  0  0  0  0  0  0  0  0  0  0
    4.4950   -8.6313   29.1503 He  0  0  0  0  0  0  0  0  0  0  0  0
    5.0071   -8.1430   26.3219 He  0  0  0  0  0  0  0  0  0  0  0  0
  1  3  3  0
  1 10  1  0
  1 20  4  0
  1 22  1  0
  1 23  2  0
  2  3  3  0
  2  5  1  0
  2  6  4  0
  2  7  2  0
  2  9  3  0
  2 10  1  0
  2 13  2  0
  2 15  3  0
  2 17  3  0
  2 23  4  0
  3  6  4  0
  3  9  2  0
  3 11  4  0
  3 16  1  0
  3 19  4  0
  3 20  2  0
  3 22  4  0
  4  6  1  0
  4 11  1  0
  4 14  4  0
  4 17  1  0
  5  6  4  0
  5 21  4  0
  5 23  3  0
  7 15  1  0
  7 16  1  0
  7 22  2  0
  7 23  1  0
  8 10  3  0
  8 12  4  0
  8 19  3  0
  9 11  2  0
  9 18  1  0
  9 21  2  0
 10 11  3  0
 10 13  1  0
 11 17  1  0
 11 18  4  0
 11 19  2  0
 11 20  4  0
 12 13  3  0
 12 15  1  0
 12 18  4  0
 12 19  4  0
 12 21  2  0
 13 14  4  0
 14 18  1  0
 14 20  2  0
 14 21  3  0
 14 23  3  0
 16 19  2  0
 17 21  3  0
 17 22  2  0
 20 23  1  0
 21 23  4  0
M  END
$$$$

 Created by Python create_sdf_string function

 28 28  0  0  0  0  0  0  0  0999 V2000
    0.1145   -8.6937   15.5398 C   0  0  0  0  0  0  0  0  0  0  0  0
    6.2336   -7.8657   17.7992 C   0  0  0  0  0  0  0  0  0  0  0  0
    5.8648   -7.3007   16.6864 C   0  0  0  0  0  0  0  0  0  0  0  0
    3.5193   -4.4514   27.3020 C   0  0  0  0  0  0  0  0  0  0  0  0
    8.3885   -7.0064   17.5156 C   0  0  0  0  0  0  0  0  0  0  0  0
    2.4459   -6.3868   27.0250 C   0  0  0  0  0  0  0  0  0  0  0  0
    8.0569   -6.3847   16.3489 C   0  0  0  0  0  0  0  0  0  0  0  0
    7.5508   -7.7662   18.1716 C   0  0  0  0  0  0  0  0  0  0  0  0
    3.7498   -7.5788   28.6821 C   0  0  0  0  0  0  0  0  0  0  0  0
    3.6576   -8.3196   16.8172 C   0  0  0  0  0  0  0  0  0  0  0  0
    3.6025   -6.9677   15.5490 N   0  0  0  0  0  0  0  0  0  0  0  0
    4.4355   -7.4653   16.3753 C   0  0  0  0  0  0  0  0  0  0  0  0
   -0.2374   -9.4589   14.5507 C   0  0  0  0  0  0  0  0  0  0  0  0
    3.7406   -4.9100   27.7940 C   0  0  0  0  0  0  0  0  0  0  0  0
    2.3752   -7.7566   16.0414 C   0  0  0  0  0  0  0  0  0  0  0  0
    4.8060   -9.7680   28.5674 C   0  0  0  0  0  0  0  0  0  0  0  0
    1.6605   -5.4607   27.0662 C   0  0  0  0  0  0  0  0  0  0  0  0
    5.1757  -10.8267   29.5637 O   0  0  0  0  0  0  0  0  0  0  0  0
    3.4799   -7.0445   27.5826 N   0  0  0  0  0  0  0  0  0  0  0  0
    4.3907   -8.8173   28.7548 C   0  0  0  0  0  0  0  0  0  0  0  0
    4.5732   -5.7183   27.0130 C   0  0  0  0  0  0  0  0  0  0  0  0
    5.2017   -8.2008   26.7360 C   0  0  0  0  0  0  0  0  0  0  0  0
    2.2079   -7.2473   15.7768 C   0  0  0  0  0  0  0  0  0  0  0  0
    6.7206   -6.6163   15.9310 C   0  0  0  0  0  0  0  0  0  0  0  0
    3.6247   -9.4133   30.3339 C   0  0  0  0  0  0  0  0  0  0  0  0
    5.3821   -7.3351   26.4726 C   0  0  0  0  0  0  0  0  0  0  0  0
    1.0373   -7.7903   15.5225 C   0  0  0  0  0  0  0  0  0  0  0  0
    3.1938   -8.4596   30.3074 O   0  0  0  0  0  0  0  0  0  0  0  0
  1 13  1  0
  1 27  1  0
  2  3  4  0
  2  8  4  0
  3 12  1  0
  3 24  4  0
  4 14  1  0
  4 21  1  0
  5  7  4  0
  5  8  4  0
  6 17  1  0
  6 19  1  0
  7 24  4  0
  9 19  1  0
  9 20  1  0
 10 12  4  0
 10 15  4  0
 11 12  4  0
 11 23  4  0
 14 21  1  0
 15 23  4  0
 15 27  1  0
 16 18  1  0
 16 20  1  0
 19 21  1  0
 21 26  1  0
 22 26  1  0
 25 28  1  0
M  END
$$$$

 Created by Python create_sdf_string function

 28 56  0  0  0  0  0  0  0  0999 V2000
   -0.0173   -8.8902   15.6681 C   0  0  0  0  0  0  0  0  0  0  0  0
    6.4639   -7.9748   18.7116 F   0  0  0  0  0  0  0  0  0  0  0  0
    5.7598   -7.1941   16.5303 C   0  0  0  0  0  0  0  0  0  0  0  0
    2.7341   -4.2899   27.0620 C   0  0  0  0  0  0  0  0  0  0  0  0
    8.3737   -6.8584   17.3850 C   0  0  0  0  0  0  0  0  0  0  0  0
    7.6433   -7.7916   18.0937 N   0  0  0  0  0  0  0  0  0  0  0  0
    3.6582   -8.4114   17.7964 C   0  0  0  0  0  0  0  0  0  0  0  0
    3.2568   -7.5208   15.3040 N   0  0  0  0  0  0  0  0  0  0  0  0
   -0.2855   -9.3624   14.0242 C   0  0  0  0  0  0  0  0  0  0  0  0
    3.4775   -5.5358   27.8667 C   0  0  0  0  0  0  0  0  0  0  0  0
    2.4598   -7.8027   15.9518 O   0  0  0  0  0  0  0  0  0  0  0  0
    4.7926  -10.2920   28.8300 C   0  0  0  0  0  0  0  0  0  0  0  0
    0.7991   -4.9949   27.4142 C   0  0  0  0  0  0  0  0  0  0  0  0
    4.4125  -10.8435   29.3898 C   0  0  0  0  0  0  0  0  0  0  0  0
    4.2914   -7.0570   28.2424 N   0  0  0  0  0  0  0  0  0  0  0  0
    4.5469   -8.7830   28.5688 C   0  0  0  0  0  0  0  0  0  0  0  0
    4.8510   -5.3526   27.2461 C   0  0  0  0  0  0  0  0  0  0  0  0
    4.6062   -8.2588   26.0070 C   0  0  0  0  0  0  0  0  0  0  0  0
    2.2700   -7.5339   15.7267 C   0  0  0  0  0  0  0  0  0  0  0  0
    7.0827   -6.3480   16.0726 C   0  0  0  0  0  0  0  0  0  0  0  0
    4.2123   -6.9749   26.4895 C   0  0  0  0  0  0  0  0  0  0  0  0
    1.6182   -8.0247   15.5771 C   0  0  0  0  0  0  0  0  0  0  0  0
    3.7672   -9.7589   30.2712 O   0  0  0  0  0  0  0  0  0  0  0  0
    2.4560   -6.5945   26.9508 He  0  0  0  0  0  0  0  0  0  0  0  0
    8.3567   -7.6389   16.2697 He  0  0  0  0  0  0  0  0  0  0  0  0
    3.5499   -7.5204   29.0712 He  0  0  0  0  0  0  0  0  0  0  0  0
    4.5546   -7.7049   15.6770 He  0  0  0  0  0  0  0  0  0  0  0  0
    3.8330   -9.7717   30.7502 He  0  0  0  0  0  0  0  0  0  0  0  0
  1  9  1  0
  1 12  1  0
  2  3  4  0
  2  6  4  0
  2 12  4  0
  2 14  2  0
  2 16  4  0
  2 22  4  0
  3  6  1  0
  3 15  4  0
  3 20  4  0
  4 10  1  0
  4 16  1  0
  4 17  1  0
  5  6  4  0
  5  9  3  0
  5 16  1  0
  5 22  3  0
  5 23  4  0
  6 10  3  0
  6 12  2  0
  6 13  4  0
  6 17  4  0
  6 19  3  0
  6 22  2  0
  7 10  3  0
  7 16  3  0
  8 11  4  0
  8 14  4  0
  8 15  1  0
  8 19  4  0
  9 19  1  0
 10 12  1  0
 10 14  1  0
 10 17  2  0
 10 18  2  0
 11 17  1  0
 11 21  1  0
 12 18  4  0
 13 14  2  0
 13 20  2  0
 14 15  1  0
 14 16  4  0
 14 21  4  0
 15 17  1  0
 15 18  2  0
 15 23  3  0
 16 21  1  0
 16 22  1  0
 17 21  1  0
 18 19  3  0
 18 23  3  0
 19 22  4  0
 20 21  1  0
 20 22  3  0
 20 23  3  0
M  END
$$$$

 Created by Python create_sdf_string function

 28 29  0  0  0  0  0  0  0  0999 V2000
    0.2786   -8.5959   15.5583 C   0  0  0  0  0  0  0  0  0  0  0  0
    6.2786   -7.7963   18.0186 C   0  0  0  0  0  0  0  0  0  0  0  0
    5.8500   -7.5269   16.7816 C   0  0  0  0  0  0  0  0  0  0  0  0
    2.9034   -4.4304   27.2340 C   0  0  0  0  0  0  0  0  0  0  0  0
    8.4593   -7.2276   17.4780 C   0  0  0  0  0  0  0  0  0  0  0  0
    1.9577   -6.3894   27.1224 C   0  0  0  0  0  0  0  0  0  0  0  0
    8.0622   -6.7899   16.2646 C   0  0  0  0  0  0  0  0  0  0  0  0
    7.5956   -7.7297   18.2795 C   0  0  0  0  0  0  0  0  0  0  0  0
    3.9397   -7.7132   28.8375 C   0  0  0  0  0  0  0  0  0  0  0  0
    3.6729   -8.3521   17.0027 C   0  0  0  0  0  0  0  0  0  0  0  0
    3.8626   -7.1058   15.2956 C   0  0  0  0  0  0  0  0  0  0  0  0
    4.5124   -7.6638   16.3935 C   0  0  0  0  0  0  0  0  0  0  0  0
   -0.1072   -8.9421   14.3833 C   0  0  0  0  0  0  0  0  0  0  0  0
    2.9419   -5.3839   27.6393 C   0  0  0  0  0  0  0  0  0  0  0  0
    2.4055   -8.6620   16.7637 C   0  0  0  0  0  0  0  0  0  0  0  0
    4.6938   -9.8675   28.2000 C   0  0  0  0  0  0  0  0  0  0  0  0
    0.9441   -5.3459   27.0362 C   0  0  0  0  0  0  0  0  0  0  0  0
    4.4826  -10.7992   29.4987 C   0  0  0  0  0  0  0  0  0  0  0  0
    3.9093   -7.0236   27.9544 N   0  0  0  0  0  0  0  0  0  0  0  0
    4.4576   -8.7982   28.5006 C   0  0  0  0  0  0  0  0  0  0  0  0
    4.4114   -5.5547   27.2378 C   0  0  0  0  0  0  0  0  0  0  0  0
    4.9035   -8.3063   26.4898 C   0  0  0  0  0  0  0  0  0  0  0  0
    2.5878   -7.3784   15.0190 C   0  0  0  0  0  0  0  0  0  0  0  0
    6.7502   -6.9981   15.8823 C   0  0  0  0  0  0  0  0  0  0  0  0
    3.9882  -10.0105   30.4001 C   0  0  0  0  0  0  0  0  0  0  0  0
    4.5415   -7.2114   26.5668 C   0  0  0  0  0  0  0  0  0  0  0  0
    1.7334   -8.2295   15.7793 C   0  0  0  0  0  0  0  0  0  0  0  0
    3.5221   -9.4829   30.6832 O   0  0  0  0  0  0  0  0  0  0  0  0
  1 13  1  0
  1 27  1  0
  2  3  4  0
  2  8  4  0
  3 12  1  0
  3 24  4  0
  4 14  1  0
  4 21  1  0
  5  7  4  0
  5  8  4  0
  6 14  1  0
  6 17  1  0
  7 24  4  0
  9 19  1  0
  9 20  1  0
 10 12  4  0
 10 15  4  0
 11 12  4  0
 11 23  4  0
 15 27  4  0
 16 18  1  0
 16 20  1  0
 18 25  1  0
 19 21  1  0
 19 26  1  0
 21 26  1  0
 22 26  1  0
 23 27  4  0
 25 28  2  0
M  END
$$$$

 Created by Python create_sdf_string function

 28 42  0  0  0  0  0  0  0  0999 V2000
    0.3604   -8.7251   15.2773 C   0  0  0  0  0  0  0  0  0  0  0  0
    6.7251   -8.0698   18.5544 C   0  0  0  0  0  0  0  0  0  0  0  0
    6.0129   -8.0225   16.9045 C   0  0  0  0  0  0  0  0  0  0  0  0
    2.6186   -5.0953   26.8983 S   0  0  0  0  0  0  0  0  0  0  0  0
    1.9640   -6.9084   26.7974 Br  0  0  0  0  0  0  0  0  0  0  0  0
    7.7059   -8.1475   18.3183 C   0  0  0  0  0  0  0  0  0  0  0  0
    3.4432   -7.2096   29.5681 C   0  0  0  0  0  0  0  0  0  0  0  0
    4.7600   -8.4300   17.4044 C   0  0  0  0  0  0  0  0  0  0  0  0
    4.5461   -7.5361   15.7910 C   0  0  0  0  0  0  0  0  0  0  0  0
    2.5940   -8.6144   16.8451 C   0  0  0  0  0  0  0  0  0  0  0  0
    4.3743  -10.0972   28.4182 C   0  0  0  0  0  0  0  0  0  0  0  0
    1.1473   -4.9925   26.4357 C   0  0  0  0  0  0  0  0  0  0  0  0
    4.7831  -11.2879   29.3735 C   0  0  0  0  0  0  0  0  0  0  0  0
    3.8954   -9.3689   27.8995 C   0  0  0  0  0  0  0  0  0  0  0  0
    4.3042   -5.1718   27.9796 S   0  0  0  0  0  0  0  0  0  0  0  0
    4.4471   -8.9029   26.6422 C   0  0  0  0  0  0  0  0  0  0  0  0
    2.6336   -7.0408   15.0697 C   0  0  0  0  0  0  0  0  0  0  0  0
    6.6637   -6.7835   16.0974 C   0  0  0  0  0  0  0  0  0  0  0  0
    4.3546   -7.1258   26.7937 C   0  0  0  0  0  0  0  0  0  0  0  0
    3.5631   -9.7800   30.4293 Cl  0  0  0  0  0  0  0  0  0  0  0  0
    8.4996   -7.1476   17.4595 He  0  0  0  0  0  0  0  0  0  0  0  0
    7.8675   -7.6117   17.1335 He  0  0  0  0  0  0  0  0  0  0  0  0
    3.7831   -7.1554   14.8010 He  0  0  0  0  0  0  0  0  0  0  0  0
   -0.5858   -9.2579   13.2118 He  0  0  0  0  0  0  0  0  0  0  0  0
    3.6292   -5.1255   27.9655 He  0  0  0  0  0  0  0  0  0  0  0  0
    4.1018   -7.1088   28.0756 He  0  0  0  0  0  0  0  0  0  0  0  0
    4.1555  -10.7302   30.3967 He  0  0  0  0  0  0  0  0  0  0  0  0
    2.0819   -8.0893   16.0780 He  0  0  0  0  0  0  0  0  0  0  0  0
  1  2  1  0
  1  6  2  0
  1 14  3  0
  2  5  1  0
  2  6  4  0
  2 14  3  0
  3  5  3  0
  3  7  2  0
  3  9  1  0
  3 18  4  0
  3 20  4  0
  4 13  4  0
  4 17  3  0
  4 18  3  0
  4 19  4  0
  5 12  1  0
  5 17  4  0
  5 18  3  0
  5 19  3  0
  6  7  4  0
  6  9  2  0
  6 13  1  0
  6 15  3  0
  7  8  4  0
  7 12  3  0
  7 14  1  0
  7 19  4  0
  7 20  2  0
  8 10  4  0
  8 14  3  0
  8 16  3  0
  8 17  3  0
  9 10  1  0
  9 13  3  0
 11 13  1  0
 12 15  2  0
 13 15  2  0
 13 19  4  0
 15 19  1  0
 16 19  3  0
 18 19  2  0
 18 20  2  0
M  END
$$$$

 Created by Python create_sdf_string function

 28 30  0  0  0  0  0  0  0  0999 V2000
    0.4682   -8.6267   15.2887 C   0  0  0  0  0  0  0  0  0  0  0  0
    6.3257   -8.1378   18.0733 C   0  0  0  0  0  0  0  0  0  0  0  0
    5.9063   -7.6384   16.8070 C   0  0  0  0  0  0  0  0  0  0  0  0
    2.3849   -4.4463   27.0151 C   0  0  0  0  0  0  0  0  0  0  0  0
    8.4394   -7.3102   17.5949 C   0  0  0  0  0  0  0  0  0  0  0  0
    2.2422   -6.5781   26.6715 C   0  0  0  0  0  0  0  0  0  0  0  0
    8.0513   -6.7844   16.5133 C   0  0  0  0  0  0  0  0  0  0  0  0
    7.6421   -7.9747   18.3188 C   0  0  0  0  0  0  0  0  0  0  0  0
    3.8099   -7.8186   29.2584 C   0  0  0  0  0  0  0  0  0  0  0  0
    3.7247   -8.5653   16.9316 C   0  0  0  0  0  0  0  0  0  0  0  0
    3.9573   -7.1095   15.2286 C   0  0  0  0  0  0  0  0  0  0  0  0
    4.5399   -7.7734   16.3561 C   0  0  0  0  0  0  0  0  0  0  0  0
    0.0088   -8.7432   14.1209 N   0  0  0  0  0  0  0  0  0  0  0  0
    3.4590   -4.7543   27.8415 C   0  0  0  0  0  0  0  0  0  0  0  0
    2.3875   -8.8741   16.6817 C   0  0  0  0  0  0  0  0  0  0  0  0
    4.3696  -10.2480   28.4693 C   0  0  0  0  0  0  0  0  0  0  0  0
    1.6485   -5.3087   26.7162 C   0  0  0  0  0  0  0  0  0  0  0  0
    4.5185  -11.2435   29.0581 O   0  0  0  0  0  0  0  0  0  0  0  0
    3.9837   -6.8657   28.3767 C   0  0  0  0  0  0  0  0  0  0  0  0
    4.1158   -9.1577   28.3260 C   0  0  0  0  0  0  0  0  0  0  0  0
    4.0844   -5.7182   28.0207 C   0  0  0  0  0  0  0  0  0  0  0  0
    4.1329   -8.5744   26.9615 C   0  0  0  0  0  0  0  0  0  0  0  0
    2.6636   -7.3626   14.8253 C   0  0  0  0  0  0  0  0  0  0  0  0
    6.8247   -7.0079   16.1043 C   0  0  0  0  0  0  0  0  0  0  0  0
    4.0255  -10.4687   30.4165 O   0  0  0  0  0  0  0  0  0  0  0  0
    3.5934   -7.1257   26.8696 C   0  0  0  0  0  0  0  0  0  0  0  0
    1.8597   -8.2721   15.6001 C   0  0  0  0  0  0  0  0  0  0  0  0
    3.6151   -9.2542   30.5393 O   0  0  0  0  0  0  0  0  0  0  0  0
  1 13  1  0
  1 27  1  0
  2  3  4  0
  2  8  4  0
  3 12  1  0
  3 24  4  0
  4 14  1  0
  4 17  1  0
  5  7  4  0
  5  8  4  0
  6 17  1  0
  6 26  1  0
  7 24  4  0
  9 19  1  0
  9 20  1  0
  9 28  1  0
 10 12  4  0
 10 15  4  0
 11 12  4  0
 11 23  4  0
 14 21  1  0
 15 27  4  0
 16 18  1  0
 16 20  1  0
 19 21  1  0
 19 26  1  0
 20 22  1  0
 22 26  1  0
 23 27  4  0
 25 28  2  0
M  END
$$$$

 Created by Python create_sdf_string function

 28 49  0  0  0  0  0  0  0  0999 V2000
    0.6510   -8.6486   15.3269 C   0  0  0  0  0  0  0  0  0  0  0  0
    6.0467   -7.6174   16.7228 C   0  0  0  0  0  0  0  0  0  0  0  0
    3.0005   -4.4499   26.9820 C   0  0  0  0  0  0  0  0  0  0  0  0
    8.7257   -7.1601   17.4927 C   0  0  0  0  0  0  0  0  0  0  0  0
    1.7690   -6.4977   26.6232 C   0  0  0  0  0  0  0  0  0  0  0  0
    7.6529   -6.4320   16.6577 C   0  0  0  0  0  0  0  0  0  0  0  0
    7.6035   -7.8199   18.3948 C   0  0  0  0  0  0  0  0  0  0  0  0
    3.8334   -7.6552   29.1589 C   0  0  0  0  0  0  0  0  0  0  0  0
    4.5453   -7.5962   15.5181 C   0  0  0  0  0  0  0  0  0  0  0  0
    4.4682   -7.0854   16.2763 C   0  0  0  0  0  0  0  0  0  0  0  0
    2.4377   -8.8844   16.7699 C   0  0  0  0  0  0  0  0  0  0  0  0
    2.2339   -5.3759   25.9257 F   0  0  0  0  0  0  0  0  0  0  0  0
    4.9799  -11.3921   29.1249 S   0  0  0  0  0  0  0  0  0  0  0  0
    3.5647   -9.0717   28.5592 F   0  0  0  0  0  0  0  0  0  0  0  0
    3.7929   -6.1689   28.3048 O   0  0  0  0  0  0  0  0  0  0  0  0
    3.6960   -8.2424   27.3574 C   0  0  0  0  0  0  0  0  0  0  0  0
    2.4566   -7.4468   14.5199 C   0  0  0  0  0  0  0  0  0  0  0  0
    7.0202   -6.9811   16.2470 C   0  0  0  0  0  0  0  0  0  0  0  0
    2.9765   -7.0933   26.7352 O   0  0  0  0  0  0  0  0  0  0  0  0
    2.1167   -8.7116   14.7179 P   0  0  0  0  0  0  0  0  0  0  0  0
    4.2209   -9.4129   30.0646 O   0  0  0  0  0  0  0  0  0  0  0  0
    6.6224   -8.6110   17.8147 He  0  0  0  0  0  0  0  0  0  0  0  0
    3.0390   -8.1173   17.0321 He  0  0  0  0  0  0  0  0  0  0  0  0
    0.6034   -9.0491   13.7168 He  0  0  0  0  0  0  0  0  0  0  0  0
    3.1572   -4.0132   27.1904 He  0  0  0  0  0  0  0  0  0  0  0  0
    4.3836   -9.9201   28.2801 He  0  0  0  0  0  0  0  0  0  0  0  0
    3.9864   -7.2978   28.9306 He  0  0  0  0  0  0  0  0  0  0  0  0
    4.2330   -9.8208   30.6804 He  0  0  0  0  0  0  0  0  0  0  0  0
  1  5  2  0
  1 10  1  0
  1 13  3  0
  1 14  1  0
  1 18  4  0
  1 19  3  0
  1 20  1  0
  2  3  3  0
  2 10  1  0
  2 15  1  0
  2 18  4  0
  3  6  1  0
  3  8  4  0
  3 12  4  0
  3 13  2  0
  3 18  1  0
  4  7  4  0
  4 12  1  0
  4 14  4  0
  4 20  1  0
  5 14  1  0
  5 18  4  0
  6  7  2  0
  6 14  2  0
  6 16  3  0
  6 18  4  0
  6 20  1  0
  7  8  1  0
  7 20  3  0
  8  9  4  0
  8 21  1  0
  9 10  4  0
  9 15  2  0
  9 17  3  0
  9 18  4  0
 10 18  4  0
 10 21  1  0
 11 20  1  0
 12 17  2  0
 12 19  4  0
 14 15  3  0
 14 16  1  0
 14 18  1  0
 14 19  2  0
 14 20  1  0
 15 21  3  0
 16 17  3  0
 16 19  1  0
 17 20  4  0
M  END
$$$$

 Created by Python create_sdf_string function

 28 29  0  0  0  0  0  0  0  0999 V2000
    0.7063   -8.7917   14.8564 C   0  0  0  0  0  0  0  0  0  0  0  0
    6.3378   -8.1498   17.9100 C   0  0  0  0  0  0  0  0  0  0  0  0
    5.8090   -7.5366   16.7728 C   0  0  0  0  0  0  0  0  0  0  0  0
    3.1275   -4.3666   27.3026 C   0  0  0  0  0  0  0  0  0  0  0  0
    8.3816   -7.1283   17.6621 C   0  0  0  0  0  0  0  0  0  0  0  0
    2.0280   -6.4784   26.5835 C   0  0  0  0  0  0  0  0  0  0  0  0
    7.9977   -6.4632   16.5522 C   0  0  0  0  0  0  0  0  0  0  0  0
    7.6372   -7.9475   18.2415 C   0  0  0  0  0  0  0  0  0  0  0  0
    3.9588   -7.7837   29.4242 C   0  0  0  0  0  0  0  0  0  0  0  0
    3.6535   -8.4630   17.0048 C   0  0  0  0  0  0  0  0  0  0  0  0
    4.0430   -7.3382   15.0784 C   0  0  0  0  0  0  0  0  0  0  0  0
    4.5739   -7.7842   16.3400 C   0  0  0  0  0  0  0  0  0  0  0  0
    0.3610   -8.9130   13.7566 N   0  0  0  0  0  0  0  0  0  0  0  0
    3.3713   -4.1913   27.6109 O   0  0  0  0  0  0  0  0  0  0  0  0
    2.3195   -8.6631   16.6127 C   0  0  0  0  0  0  0  0  0  0  0  0
    4.3466  -10.0928   28.4913 N   0  0  0  0  0  0  0  0  0  0  0  0
    2.0825   -5.1630   26.3394 C   0  0  0  0  0  0  0  0  0  0  0  0
    4.5737  -11.2665   28.8504 O   0  0  0  0  0  0  0  0  0  0  0  0
    3.6377   -6.9178   28.4759 C   0  0  0  0  0  0  0  0  0  0  0  0
    3.7651   -9.3228   27.9069 C   0  0  0  0  0  0  0  0  0  0  0  0
    3.7824   -5.6292   28.5458 C   0  0  0  0  0  0  0  0  0  0  0  0
    3.3352   -8.5136   27.0114 C   0  0  0  0  0  0  0  0  0  0  0  0
    2.8307   -7.6941   14.5143 C   0  0  0  0  0  0  0  0  0  0  0  0
    6.7602   -6.7039   16.1061 C   0  0  0  0  0  0  0  0  0  0  0  0
    4.2951   -9.7230   30.8878 O   0  0  0  0  0  0  0  0  0  0  0  0
    3.0454   -7.2557   27.1098 C   0  0  0  0  0  0  0  0  0  0  0  0
    1.9550   -8.3647   15.3649 C   0  0  0  0  0  0  0  0  0  0  0  0
    4.2300   -9.1051   30.1037 C   0  0  0  0  0  0  0  0  0  0  0  0
  1 13  1  0
  1 27  1  0
  2  3  4  0
  2  8  4  0
  3 12  1  0
  3 24  4  0
  4 14  2  0
  4 17  1  0
  5  7  4  0
  5  8  4  0
  6 17  1  0
  6 26  1  0
  7 24  4  0
  9 19  1  0
  9 28  1  0
 10 12  4  0
 10 15  4  0
 11 12  4  0
 11 23  4  0
 14 21  1  0
 15 27  4  0
 16 18  1  0
 16 20  1  0
 19 21  1  0
 19 26  1  0
 20 22  1  0
 22 26  1  0
 23 27  4  0
 25 28  2  0
M  END
$$$$

 Created by Python create_sdf_string function

 28 56  0  0  0  0  0  0  0  0999 V2000
    0.6109   -8.8268   14.7257 C   0  0  0  0  0  0  0  0  0  0  0  0
    6.2381   -7.8054   17.4218 C   0  0  0  0  0  0  0  0  0  0  0  0
    5.8301   -7.4576   16.9796 C   0  0  0  0  0  0  0  0  0  0  0  0
    3.0971   -3.9582   27.3550 C   0  0  0  0  0  0  0  0  0  0  0  0
    8.6397   -7.4208   17.6575 I   0  0  0  0  0  0  0  0  0  0  0  0
    7.5703   -5.7177   16.8874 C   0  0  0  0  0  0  0  0  0  0  0  0
    7.6980   -7.7077   18.1264 C   0  0  0  0  0  0  0  0  0  0  0  0
    4.0522   -7.7444   29.4126 C   0  0  0  0  0  0  0  0  0  0  0  0
    3.0770   -8.2498   17.1745 C   0  0  0  0  0  0  0  0  0  0  0  0
    3.8529   -7.4952   15.7342 C   0  0  0  0  0  0  0  0  0  0  0  0
    3.6639   -8.1217   16.5538 C   0  0  0  0  0  0  0  0  0  0  0  0
    3.2162   -4.0793   27.2236 O   0  0  0  0  0  0  0  0  0  0  0  0
    2.2173   -8.6312   16.5839 C   0  0  0  0  0  0  0  0  0  0  0  0
    4.4012  -10.2372   28.3209 N   0  0  0  0  0  0  0  0  0  0  0  0
    4.4232  -11.3449   28.2239 O   0  0  0  0  0  0  0  0  0  0  0  0
    2.8009   -6.6438   28.2658 C   0  0  0  0  0  0  0  0  0  0  0  0
    3.9495   -5.7971   29.3931 C   0  0  0  0  0  0  0  0  0  0  0  0
    3.9427   -8.4532   26.5660 Se  0  0  0  0  0  0  0  0  0  0  0  0
    3.2295   -7.4897   14.5841 C   0  0  0  0  0  0  0  0  0  0  0  0
    6.5645   -6.5485   16.3188 C   0  0  0  0  0  0  0  0  0  0  0  0
    4.3712  -10.2609   30.6082 O   0  0  0  0  0  0  0  0  0  0  0  0
    2.8296   -6.2298   27.5461 C   0  0  0  0  0  0  0  0  0  0  0  0
    4.7750   -8.6640   29.6243 C   0  0  0  0  0  0  0  0  0  0  0  0
    2.6635   -6.6248   26.0547 He  0  0  0  0  0  0  0  0  0  0  0  0
    0.8969   -8.9837   13.4245 He  0  0  0  0  0  0  0  0  0  0  0  0
    1.8887   -5.6382   26.9289 He  0  0  0  0  0  0  0  0  0  0  0  0
    3.9144   -9.8277   27.8231 He  0  0  0  0  0  0  0  0  0  0  0  0
    1.7760   -8.4278   15.3520 He  0  0  0  0  0  0  0  0  0  0  0  0
  1  7  2  0
  1  9  3  0
  1 14  2  0
  1 22  2  0
  2  3  4  0
  2  7  4  0
  2 13  3  0
  2 14  4  0
  2 15  4  0
  2 16  3  0
  2 20  4  0
  3  4  3  0
  3  9  3  0
  3 17  2  0
  3 20  4  0
  3 23  4  0
  4 12  2  0
  4 14  2  0
  4 18  1  0
  4 19  2  0
  4 23  3  0
  5  6  1  0
  5  7  4  0
  5  8  2  0
  6 12  4  0
  6 13  4  0
  6 15  4  0
  6 20  3  0
  6 22  1  0
  7  8  3  0
  7 16  4  0
  7 18  2  0
  7 20  4  0
  7 23  4  0
  8 11  3  0
  8 13  3  0
  8 14  2  0
  8 16  1  0
  8 20  1  0
  9 13  4  0
  9 16  2  0
 10 11  4  0
 10 19  4  0
 10 23  1  0
 11 13  3  0
 11 16  1  0
 12 15  3  0
 12 16  2  0
 12 17  3  0
 12 19  2  0
 13 17  4  0
 13 22  3  0
 15 16  4  0
 16 17  1  0
 16 22  1  0
 21 23  1  0
M  END
$$$$

 Created by Python create_sdf_string function

 28 29  0  0  0  0  0  0  0  0999 V2000
    0.7112   -8.7831   14.7009 C   0  0  0  0  0  0  0  0  0  0  0  0
    6.2449   -8.1501   17.8983 C   0  0  0  0  0  0  0  0  0  0  0  0
    5.6768   -7.5333   16.9166 C   0  0  0  0  0  0  0  0  0  0  0  0
    2.8182   -4.5525   27.4006 C   0  0  0  0  0  0  0  0  0  0  0  0
    8.2284   -6.9912   17.6599 C   0  0  0  0  0  0  0  0  0  0  0  0
    2.6097   -6.6411   26.2048 N   0  0  0  0  0  0  0  0  0  0  0  0
    7.8276   -6.2736   16.6616 C   0  0  0  0  0  0  0  0  0  0  0  0
    7.5893   -7.8762   18.2371 C   0  0  0  0  0  0  0  0  0  0  0  0
    3.8920   -7.6087   29.4144 C   0  0  0  0  0  0  0  0  0  0  0  0
    3.4628   -8.4987   17.0391 C   0  0  0  0  0  0  0  0  0  0  0  0
    4.0084   -7.3540   15.1954 C   0  0  0  0  0  0  0  0  0  0  0  0
    4.3909   -7.7758   16.4610 C   0  0  0  0  0  0  0  0  0  0  0  0
    0.5585   -8.8987   13.4302 C   0  0  0  0  0  0  0  0  0  0  0  0
    3.2514   -3.8091   27.4344 O   0  0  0  0  0  0  0  0  0  0  0  0
    2.1762   -8.7883   16.6065 C   0  0  0  0  0  0  0  0  0  0  0  0
    4.2971  -10.0609   28.3222 C   0  0  0  0  0  0  0  0  0  0  0  0
    2.0643   -5.3975   26.5880 C   0  0  0  0  0  0  0  0  0  0  0  0
    4.4946  -11.3843   28.4845 O   0  0  0  0  0  0  0  0  0  0  0  0
    3.4245   -6.8161   28.5282 C   0  0  0  0  0  0  0  0  0  0  0  0
    3.9331   -9.5273   27.4371 C   0  0  0  0  0  0  0  0  0  0  0  0
    3.7020   -5.9438   29.3196 O   0  0  0  0  0  0  0  0  0  0  0  0
    3.6542   -8.4669   26.7971 C   0  0  0  0  0  0  0  0  0  0  0  0
    2.8405   -7.6710   14.5488 C   0  0  0  0  0  0  0  0  0  0  0  0
    6.5535   -6.5781   16.2913 C   0  0  0  0  0  0  0  0  0  0  0  0
    4.5714   -9.7023   30.5233 O   0  0  0  0  0  0  0  0  0  0  0  0
    3.3072   -7.0321   27.2944 C   0  0  0  0  0  0  0  0  0  0  0  0
    1.9417   -8.4314   15.3022 C   0  0  0  0  0  0  0  0  0  0  0  0
    4.4124   -8.9408   29.4788 C   0  0  0  0  0  0  0  0  0  0  0  0
  1 13  1  0
  1 27  1  0
  2  3  4  0
  2  8  4  0
  3 12  1  0
  3 24  4  0
  4 14  2  0
  4 17  1  0
  5  7  4  0
  5  8  4  0
  6 17  1  0
  6 26  1  0
  7 24  4  0
  9 19  1  0
  9 28  1  0
 10 12  4  0
 10 15  4  0
 11 12  4  0
 11 23  4  0
 15 27  4  0
 16 18  1  0
 16 20  1  0
 16 28  1  0
 19 21  1  0
 19 26  1  0
 20 22  1  0
 22 26  1  0
 23 27  4  0
 25 28  1  0
M  END
$$$$

 Created by Python create_sdf_string function

 28 30  0  0  0  0  0  0  0  0999 V2000
    0.6079   -8.8326   14.7979 C   0  0  0  0  0  0  0  0  0  0  0  0
    5.6350   -7.8156   16.7122 C   0  0  0  0  0  0  0  0  0  0  0  0
    7.9275   -7.1283   17.9787 S   0  0  0  0  0  0  0  0  0  0  0  0
    2.0368   -6.0214   26.3225 N   0  0  0  0  0  0  0  0  0  0  0  0
    7.6668   -7.6383   18.0891 C   0  0  0  0  0  0  0  0  0  0  0  0
    4.0082   -6.7558   28.6911 C   0  0  0  0  0  0  0  0  0  0  0  0
    3.5527   -7.8990   16.8752 C   0  0  0  0  0  0  0  0  0  0  0  0
    4.0629   -7.0981   15.5292 O   0  0  0  0  0  0  0  0  0  0  0  0
    4.9722   -8.1521   16.9162 C   0  0  0  0  0  0  0  0  0  0  0  0
    1.2551   -8.8531   13.6991 C   0  0  0  0  0  0  0  0  0  0  0  0
    4.0200   -4.7668   27.3106 O   0  0  0  0  0  0  0  0  0  0  0  0
    2.0851   -9.0070   16.8205 C   0  0  0  0  0  0  0  0  0  0  0  0
    5.0565  -10.5436   28.6079 C   0  0  0  0  0  0  0  0  0  0  0  0
    4.9367  -12.0157   27.8868 O   0  0  0  0  0  0  0  0  0  0  0  0
    3.3979   -9.7448   27.4617 C   0  0  0  0  0  0  0  0  0  0  0  0
    6.5119   -6.7581   16.3138 C   0  0  0  0  0  0  0  0  0  0  0  0
    4.3884   -9.8351   30.7001 N   0  0  0  0  0  0  0  0  0  0  0  0
    2.9768   -7.7247   27.1530 C   0  0  0  0  0  0  0  0  0  0  0  0
    1.4844   -8.7114   14.9569 C   0  0  0  0  0  0  0  0  0  0  0  0
    3.8903   -9.3921   29.2200 P   0  0  0  0  0  0  0  0  0  0  0  0
    6.7406   -8.2831   18.0801 He  0  0  0  0  0  0  0  0  0  0  0  0
    2.7674   -4.2494   27.0597 He  0  0  0  0  0  0  0  0  0  0  0  0
    7.3272   -5.4624   16.5236 He  0  0  0  0  0  0  0  0  0  0  0  0
    1.7357   -5.9594   25.8806 He  0  0  0  0  0  0  0  0  0  0  0  0
    2.7332   -6.7805   28.9974 He  0  0  0  0  0  0  0  0  0  0  0  0
    4.3584   -6.5686   30.1014 He  0  0  0  0  0  0  0  0  0  0  0  0
    3.6138   -7.9951   25.9226 He  0  0  0  0  0  0  0  0  0  0  0  0
    2.9617   -7.3351   14.5090 He  0  0  0  0  0  0  0  0  0  0  0  0
  1 10  1  0
  1 13  3  0
  2  4  1  0
  2  9  2  0
  2 14  2  0
  2 15  1  0
  2 16  4  0
  3  4  1  0
  3  5  4  0
  3 13  1  0
  3 15  4  0
  4 10  2  0
  4 13  2  0
  4 15  2  0
  4 18  1  0
  6 15  4  0
  6 20  1  0
  7 12  4  0
  9 15  1  0
  9 19  1  0
 10 14  1  0
 11 13  1  0
 12 13  1  0
 12 18  4  0
 12 19  4  0
 12 20  1  0
 13 15  1  0
 15 20  2  0
 16 19  3  0
 17 20  1  0
M  END
$$$$

 Created by Python create_sdf_string function

 28 30  0  0  0  0  0  0  0  0999 V2000
    0.6670   -8.9064   14.9296 C   0  0  0  0  0  0  0  0  0  0  0  0
    6.3656   -8.1326   18.0142 C   0  0  0  0  0  0  0  0  0  0  0  0
    5.7215   -7.5273   16.9016 C   0  0  0  0  0  0  0  0  0  0  0  0
    3.0071   -4.7354   27.2751 C   0  0  0  0  0  0  0  0  0  0  0  0
    8.2237   -6.8072   17.7548 C   0  0  0  0  0  0  0  0  0  0  0  0
    2.2799   -6.0654   26.5000 N   0  0  0  0  0  0  0  0  0  0  0  0
    7.7548   -6.1822   16.6904 C   0  0  0  0  0  0  0  0  0  0  0  0
    7.6702   -7.7821   18.3143 C   0  0  0  0  0  0  0  0  0  0  0  0
    3.7875   -7.5357   29.2151 C   0  0  0  0  0  0  0  0  0  0  0  0
    3.6324   -8.6095   17.1085 C   0  0  0  0  0  0  0  0  0  0  0  0
    4.0393   -7.3069   15.2778 C   0  0  0  0  0  0  0  0  0  0  0  0
    4.5429   -7.8199   16.5257 C   0  0  0  0  0  0  0  0  0  0  0  0
    0.7092   -8.8080   13.5837 C   0  0  0  0  0  0  0  0  0  0  0  0
    3.8609   -4.5283   27.6005 O   0  0  0  0  0  0  0  0  0  0  0  0
    2.3636   -8.8961   16.7122 C   0  0  0  0  0  0  0  0  0  0  0  0
    4.3655  -10.2906   28.2264 C   0  0  0  0  0  0  0  0  0  0  0  0
    1.4982   -5.7902   26.0261 N   0  0  0  0  0  0  0  0  0  0  0  0
    4.6173  -11.4011   28.5237 O   0  0  0  0  0  0  0  0  0  0  0  0
    3.1941   -6.8597   28.3319 C   0  0  0  0  0  0  0  0  0  0  0  0
    3.9115   -9.4734   27.6264 C   0  0  0  0  0  0  0  0  0  0  0  0
    4.2370   -6.7850   30.1444 O   0  0  0  0  0  0  0  0  0  0  0  0
    3.3549   -8.3967   26.6968 O   0  0  0  0  0  0  0  0  0  0  0  0
    2.8462   -7.6522   14.7083 C   0  0  0  0  0  0  0  0  0  0  0  0
    6.5635   -6.5741   16.2402 C   0  0  0  0  0  0  0  0  0  0  0  0
    4.4044   -9.5299   30.4625 N   0  0  0  0  0  0  0  0  0  0  0  0
    2.7835   -7.2639   27.1505 C   0  0  0  0  0  0  0  0  0  0  0  0
    1.9770   -8.4558   15.4751 C   0  0  0  0  0  0  0  0  0  0  0  0
    3.9665   -9.0695   29.0469 C   0  0  0  0  0  0  0  0  0  0  0  0
  1 13  1  0
  1 27  1  0
  2  3  4  0
  2  8  4  0
  3 12  1  0
  3 24  4  0
  4  6  1  0
  4 14  2  0
  5  7  4  0
  5  8  4  0
  6 17  1  0
  6 26  1  0
  7 24  4  0
  9 19  1  0
  9 21  2  0
  9 28  1  0
 10 12  4  0
 10 15  4  0
 11 12  4  0
 11 23  4  0
 15 27  4  0
 16 18  2  0
 16 20  1  0
 16 28  1  0
 19 26  1  0
 20 22  1  0
 20 28  1  0
 22 26  1  0
 23 27  4  0
 25 28  1  0
M  END
$$$$

 Created by Python create_sdf_string function

 28 58  0  0  0  0  0  0  0  0999 V2000
    0.6127   -9.0311   14.9140 C   0  0  0  0  0  0  0  0  0  0  0  0
    6.2262   -7.9549   18.3920 C   0  0  0  0  0  0  0  0  0  0  0  0
    5.6627   -7.3704   16.7282 P   0  0  0  0  0  0  0  0  0  0  0  0
    3.2932   -4.3031   27.5073 C   0  0  0  0  0  0  0  0  0  0  0  0
    8.5184   -6.9449   17.5732 C   0  0  0  0  0  0  0  0  0  0  0  0
    2.5311   -5.4719   26.3800 N   0  0  0  0  0  0  0  0  0  0  0  0
    7.2324   -6.6764   16.1817 C   0  0  0  0  0  0  0  0  0  0  0  0
    2.4921   -7.6779   29.3982 C   0  0  0  0  0  0  0  0  0  0  0  0
    4.0183   -8.7114   17.3348 C   0  0  0  0  0  0  0  0  0  0  0  0
    3.7541   -7.1391   15.3347 C   0  0  0  0  0  0  0  0  0  0  0  0
    3.5973   -8.2051   16.8186 P   0  0  0  0  0  0  0  0  0  0  0  0
    1.3389   -8.8513   13.5436 C   0  0  0  0  0  0  0  0  0  0  0  0
    3.3791   -4.9444   28.0756 O   0  0  0  0  0  0  0  0  0  0  0  0
    2.2820   -8.7681   16.6813 C   0  0  0  0  0  0  0  0  0  0  0  0
    4.9112  -12.0273   28.0786 O   0  0  0  0  0  0  0  0  0  0  0  0
    2.9792   -6.7227   28.7002 F   0  0  0  0  0  0  0  0  0  0  0  0
    4.4776   -9.6579   27.6248 C   0  0  0  0  0  0  0  0  0  0  0  0
    3.6746   -7.2428   30.0757 C   0  0  0  0  0  0  0  0  0  0  0  0
    3.2842   -8.5946   26.7580 O   0  0  0  0  0  0  0  0  0  0  0  0
    6.7606   -6.3880   16.3939 C   0  0  0  0  0  0  0  0  0  0  0  0
    4.6779   -9.3582   30.0372 N   0  0  0  0  0  0  0  0  0  0  0  0
    2.8837   -7.1045   27.6250 F   0  0  0  0  0  0  0  0  0  0  0  0
    2.1067   -8.1481   15.5855 C   0  0  0  0  0  0  0  0  0  0  0  0
    4.5878   -8.9976   28.4265 C   0  0  0  0  0  0  0  0  0  0  0  0
    7.6612   -7.8420   18.5669 He  0  0  0  0  0  0  0  0  0  0  0  0
    3.6984  -10.1152   28.6075 He  0  0  0  0  0  0  0  0  0  0  0  0
    1.1991   -6.1283   25.6360 He  0  0  0  0  0  0  0  0  0  0  0  0
    2.8530   -7.9252   15.0298 He  0  0  0  0  0  0  0  0  0  0  0  0
  1 12  1  0
  1 13  2  0
  1 23  1  0
  1 24  1  0
  2  3  3  0
  2 13  3  0
  2 16  2  0
  3 11  1  0
  3 12  3  0
  3 20  4  0
  4  6  1  0
  4  8  3  0
  4 22  1  0
  4 23  1  0
  5  7  1  0
  5 11  1  0
  5 16  2  0
  5 18  1  0
  5 22  1  0
  5 23  4  0
  6  7  3  0
  6  9  2  0
  6 12  4  0
  6 22  1  0
  7 13  2  0
  7 16  3  0
  7 20  4  0
  8 18  2  0
  8 20  4  0
  8 24  2  0
  9 12  1  0
  9 14  4  0
  9 18  4  0
 10 11  4  0
 10 14  2  0
 10 18  1  0
 10 21  4  0
 10 24  2  0
 11 21  3  0
 11 22  2  0
 11 23  2  0
 11 24  2  0
 13 17  4  0
 14 16  2  0
 14 21  1  0
 14 23  4  0
 15 20  4  0
 16 22  1  0
 17 18  4  0
 17 19  1  0
 17 24  4  0
 18 24  2  0
 19 22  3  0
 20 24  3  0
 21 24  4  0
 22 23  1  0
 22 24  4  0
 23 24  4  0
M  END
$$$$

 Created by Python create_sdf_string function

 28 31  0  0  0  0  0  0  0  0999 V2000
    0.7336   -8.9845   14.9624 C   0  0  0  0  0  0  0  0  0  0  0  0
    6.2525   -8.0335   18.1045 C   0  0  0  0  0  0  0  0  0  0  0  0
    5.7176   -7.5799   16.9437 C   0  0  0  0  0  0  0  0  0  0  0  0
    3.0066   -4.7254   27.3086 C   0  0  0  0  0  0  0  0  0  0  0  0
    8.3212   -6.9986   17.6368 C   0  0  0  0  0  0  0  0  0  0  0  0
    2.6898   -5.8992   26.4063 C   0  0  0  0  0  0  0  0  0  0  0  0
    7.8601   -6.4216   16.5257 C   0  0  0  0  0  0  0  0  0  0  0  0
    7.5837   -7.7897   18.3473 C   0  0  0  0  0  0  0  0  0  0  0  0
    3.2967   -7.5424   29.6278 C   0  0  0  0  0  0  0  0  0  0  0  0
    3.5963   -8.7043   17.2215 C   0  0  0  0  0  0  0  0  0  0  0  0
    3.9350   -7.2759   15.3720 C   0  0  0  0  0  0  0  0  0  0  0  0
    4.4532   -7.8336   16.5780 C   0  0  0  0  0  0  0  0  0  0  0  0
    0.7453   -8.9396   13.4961 C   0  0  0  0  0  0  0  0  0  0  0  0
    3.3085   -4.9276   28.3780 O   0  0  0  0  0  0  0  0  0  0  0  0
    2.3464   -9.0621   16.7215 C   0  0  0  0  0  0  0  0  0  0  0  0
    4.2401  -10.2931   28.3204 C   0  0  0  0  0  0  0  0  0  0  0  0
    1.4032   -5.9000   26.0504 N   0  0  0  0  0  0  0  0  0  0  0  0
    4.5219  -11.3259   28.3545 O   0  0  0  0  0  0  0  0  0  0  0  0
    3.0801   -6.7092   28.4936 C   0  0  0  0  0  0  0  0  0  0  0  0
    3.8541   -9.0992   27.7358 C   0  0  0  0  0  0  0  0  0  0  0  0
    3.6500   -7.6861   30.5156 C   0  0  0  0  0  0  0  0  0  0  0  0
    3.4373   -8.3923   26.6647 O   0  0  0  0  0  0  0  0  0  0  0  0
    2.7751   -7.6761   14.8471 C   0  0  0  0  0  0  0  0  0  0  0  0
    6.5675   -6.7267   16.1369 C   0  0  0  0  0  0  0  0  0  0  0  0
    4.6333   -9.3466   30.1356 N   0  0  0  0  0  0  0  0  0  0  0  0
    3.0151   -7.0949   27.1526 C   0  0  0  0  0  0  0  0  0  0  0  0
    1.9784   -8.5693   15.5182 C   0  0  0  0  0  0  0  0  0  0  0  0
    4.0614   -9.1248   28.9174 C   0  0  0  0  0  0  0  0  0  0  0  0
  1 13  1  0
  1 27  1  0
  2  3  4  0
  2  8  4  0
  3 12  1  0
  3 24  4  0
  4  6  1  0
  4 14  2  0
  5  7  4  0
  5  8  4  0
  6 17  1  0
  6 26  1  0
  7 24  4  0
  9 19  1  0
  9 21  2  0
  9 28  1  0
 10 12  4  0
 10 15  4  0
 11 12  4  0
 11 23  4  0
 14 19  1  0
 15 27  4  0
 16 18  1  0
 16 28  1  0
 19 26  1  0
 20 22  1  0
 20 28  4  0
 21 25  4  0
 22 26  1  0
 23 27  4  0
 25 28  4  0
M  END
$$$$

 Created by Python create_sdf_string function

 28 45  0  0  0  0  0  0  0  0999 V2000
    6.5829   -8.1582   17.7021 C   0  0  0  0  0  0  0  0  0  0  0  0
    5.5092   -7.8773   16.6417 C   0  0  0  0  0  0  0  0  0  0  0  0
    3.4150   -5.0427   27.0301 C   0  0  0  0  0  0  0  0  0  0  0  0
    2.7009   -5.9308   26.3144 C   0  0  0  0  0  0  0  0  0  0  0  0
    7.7929   -7.6070   18.7301 C   0  0  0  0  0  0  0  0  0  0  0  0
    2.9165   -7.3947   29.3389 C   0  0  0  0  0  0  0  0  0  0  0  0
    2.9811   -8.7559   17.2776 C   0  0  0  0  0  0  0  0  0  0  0  0
    3.5888   -4.5751   28.3594 O   0  0  0  0  0  0  0  0  0  0  0  0
    2.3647   -9.0806   16.9634 C   0  0  0  0  0  0  0  0  0  0  0  0
    4.8497  -11.1040   28.0308 N   0  0  0  0  0  0  0  0  0  0  0  0
    0.7159   -5.8245   26.3561 N   0  0  0  0  0  0  0  0  0  0  0  0
    4.4155  -11.4386   28.6309 O   0  0  0  0  0  0  0  0  0  0  0  0
    3.1873   -6.7676   28.4562 C   0  0  0  0  0  0  0  0  0  0  0  0
    3.8340   -7.5230   30.3553 C   0  0  0  0  0  0  0  0  0  0  0  0
    2.9590   -7.7291   14.6718 C   0  0  0  0  0  0  0  0  0  0  0  0
    6.3270   -6.7562   16.2639 C   0  0  0  0  0  0  0  0  0  0  0  0
    4.8709   -9.3861   29.8858 N   0  0  0  0  0  0  0  0  0  0  0  0
    2.9408   -7.2584   27.1850 O   0  0  0  0  0  0  0  0  0  0  0  0
    2.0537   -8.9867   15.8313 C   0  0  0  0  0  0  0  0  0  0  0  0
    4.3522   -8.9366   29.3266 C   0  0  0  0  0  0  0  0  0  0  0  0
    0.9806   -8.7811   15.0647 He  0  0  0  0  0  0  0  0  0  0  0  0
    8.3362   -6.8448   17.4601 He  0  0  0  0  0  0  0  0  0  0  0  0
    7.6265   -6.6610   16.5115 He  0  0  0  0  0  0  0  0  0  0  0  0
    3.8105   -7.2315   14.5315 He  0  0  0  0  0  0  0  0  0  0  0  0
    5.0792   -7.5662   16.2006 He  0  0  0  0  0  0  0  0  0  0  0  0
    0.3653   -8.3939   13.8420 He  0  0  0  0  0  0  0  0  0  0  0  0
    3.8304   -9.4749   27.5307 He  0  0  0  0  0  0  0  0  0  0  0  0
    3.3050   -7.9904   27.0391 He  0  0  0  0  0  0  0  0  0  0  0  0
  1  2  4  0
  1  5  4  0
  1 10  4  0
  1 11  1  0
  1 13  2  0
  1 14  2  0
  1 15  2  0
  1 20  4  0
  2  3  1  0
  2 15  4  0
  2 16  4  0
  3  4  1  0
  3  5  1  0
  3  8  2  0
  3 18  3  0
  3 19  2  0
  4 11  1  0
  4 18  1  0
  6  7  3  0
  6 10  2  0
  6 13  1  0
  6 14  2  0
  6 19  3  0
  6 20  1  0
  7  9  4  0
  8 10  2  0
  8 11  4  0
  8 13  1  0
  9 13  1  0
  9 16  3  0
 10 20  1  0
 11 19  3  0
 12 14  4  0
 12 15  1  0
 12 18  2  0
 12 19  1  0
 13 18  2  0
 14 15  4  0
 14 17  4  0
 14 18  1  0
 14 20  3  0
 15 17  4  0
 16 20  3  0
 17 20  4  0
 18 19  1  0
M  END
$$$$

 Created by Python create_sdf_string function

 28 31  0  0  0  0  0  0  0  0999 V2000
    0.6658   -8.9341   14.9692 C   0  0  0  0  0  0  0  0  0  0  0  0
    6.3053   -8.0905   17.9134 C   0  0  0  0  0  0  0  0  0  0  0  0
    5.7588   -7.6105   16.7397 C   0  0  0  0  0  0  0  0  0  0  0  0
    3.0731   -4.7560   27.1857 C   0  0  0  0  0  0  0  0  0  0  0  0
    8.2723   -6.9008   17.5986 C   0  0  0  0  0  0  0  0  0  0  0  0
    2.5461   -5.8952   26.4472 C   0  0  0  0  0  0  0  0  0  0  0  0
    7.8633   -6.3553   16.4794 C   0  0  0  0  0  0  0  0  0  0  0  0
    7.5612   -7.7833   18.2543 C   0  0  0  0  0  0  0  0  0  0  0  0
    3.5885   -7.4488   29.1880 C   0  0  0  0  0  0  0  0  0  0  0  0
    3.6327   -8.7088   17.0367 C   0  0  0  0  0  0  0  0  0  0  0  0
    4.0397   -7.4276   15.0634 C   0  0  0  0  0  0  0  0  0  0  0  0
    4.5281   -7.9146   16.3201 C   0  0  0  0  0  0  0  0  0  0  0  0
    0.2029   -8.5932   13.9786 C   0  0  0  0  0  0  0  0  0  0  0  0
    3.3814   -5.1582   28.4346 O   0  0  0  0  0  0  0  0  0  0  0  0
    2.3331   -8.9857   16.5952 C   0  0  0  0  0  0  0  0  0  0  0  0
    4.5234  -10.5859   28.5736 C   0  0  0  0  0  0  0  0  0  0  0  0
    1.1972   -5.7178   26.3092 C   0  0  0  0  0  0  0  0  0  0  0  0
    4.4711  -11.4845   28.7648 O   0  0  0  0  0  0  0  0  0  0  0  0
    3.2446   -6.5928   28.4921 C   0  0  0  0  0  0  0  0  0  0  0  0
    3.7120   -8.9539   27.8217 C   0  0  0  0  0  0  0  0  0  0  0  0
    4.0751   -7.8800   30.3370 C   0  0  0  0  0  0  0  0  0  0  0  0
    3.2146   -8.3470   26.8563 N   0  0  0  0  0  0  0  0  0  0  0  0
    2.7817   -7.7691   14.6262 C   0  0  0  0  0  0  0  0  0  0  0  0
    6.6059   -6.7373   15.9981 C   0  0  0  0  0  0  0  0  0  0  0  0
    4.5345   -9.1385   30.2143 N   0  0  0  0  0  0  0  0  0  0  0  0
    2.8647   -7.0623   27.0645 C   0  0  0  0  0  0  0  0  0  0  0  0
    1.9584   -8.5360   15.3841 C   0  0  0  0  0  0  0  0  0  0  0  0
    4.2468   -9.4176   28.8869 C   0  0  0  0  0  0  0  0  0  0  0  0
  1 13  1  0
  1 27  1  0
  2  3  4  0
  2  8  4  0
  3 12  1  0
  3 24  4  0
  4  6  1  0
  4 14  2  0
  5  7  4  0
  5  8  4  0
  6 17  1  0
  6 26  1  0
  7 24  4  0
  9 19  1  0
  9 20  4  0
  9 21  4  0
 10 12  4  0
 10 15  4  0
 11 12  4  0
 11 23  4  0
 14 19  1  0
 15 27  4  0
 16 18  2  0
 16 28  1  0
 19 26  2  0
 20 22  1  0
 20 28  4  0
 21 25  4  0
 22 26  1  0
 23 27  4  0
 25 28  4  0
M  END
$$$$

 Created by Python create_sdf_string function

 28 52  0  0  0  0  0  0  0  0999 V2000
    0.7777   -8.8741   15.2477 C   0  0  0  0  0  0  0  0  0  0  0  0
    6.7047   -7.8367   17.8688 C   0  0  0  0  0  0  0  0  0  0  0  0
    5.9973   -7.8595   17.1896 C   0  0  0  0  0  0  0  0  0  0  0  0
    3.3322   -4.3884   27.0134 C   0  0  0  0  0  0  0  0  0  0  0  0
    8.4792   -7.0838   17.8525 C   0  0  0  0  0  0  0  0  0  0  0  0
    2.9630   -6.0395   26.2241 C   0  0  0  0  0  0  0  0  0  0  0  0
    7.9062   -6.4477   16.3795 C   0  0  0  0  0  0  0  0  0  0  0  0
    7.5402   -7.7102   18.4646 C   0  0  0  0  0  0  0  0  0  0  0  0
    3.6398   -8.0489   29.6387 C   0  0  0  0  0  0  0  0  0  0  0  0
    3.3465   -8.0041   16.9652 C   0  0  0  0  0  0  0  0  0  0  0  0
    3.0977   -4.5914   29.3088 O   0  0  0  0  0  0  0  0  0  0  0  0
    2.5460   -9.3175   16.4469 C   0  0  0  0  0  0  0  0  0  0  0  0
    5.1273  -10.6505   28.6449 Cl  0  0  0  0  0  0  0  0  0  0  0  0
    1.5547   -6.4185   26.3724 C   0  0  0  0  0  0  0  0  0  0  0  0
    3.9869  -11.2026   28.9125 O   0  0  0  0  0  0  0  0  0  0  0  0
    3.1706   -6.7141   28.7952 C   0  0  0  0  0  0  0  0  0  0  0  0
    3.6370   -9.7500   27.6475 C   0  0  0  0  0  0  0  0  0  0  0  0
    3.4810   -8.0893   30.6415 C   0  0  0  0  0  0  0  0  0  0  0  0
    2.9846   -8.0609   27.0592 N   0  0  0  0  0  0  0  0  0  0  0  0
    2.8005   -7.5606   14.5952 C   0  0  0  0  0  0  0  0  0  0  0  0
    5.0679   -8.7327   29.9036 N   0  0  0  0  0  0  0  0  0  0  0  0
    2.8874   -7.1350   26.9426 C   0  0  0  0  0  0  0  0  0  0  0  0
    1.4724   -7.8747   15.4965 P   0  0  0  0  0  0  0  0  0  0  0  0
    3.7190   -7.7366   15.2434 He  0  0  0  0  0  0  0  0  0  0  0  0
    4.2341   -8.2864   16.8831 He  0  0  0  0  0  0  0  0  0  0  0  0
    0.4499   -8.5164   14.4336 He  0  0  0  0  0  0  0  0  0  0  0  0
    6.5345   -6.9921   16.2178 He  0  0  0  0  0  0  0  0  0  0  0  0
    3.9941   -9.1830   28.8178 He  0  0  0  0  0  0  0  0  0  0  0  0
  1  6  1  0
  1  9  2  0
  1 11  2  0
  1 16  1  0
  1 23  4  0
  2  3  4  0
  2  7  3  0
  2  8  4  0
  2 10  4  0
  2 20  4  0
  2 21  1  0
  3  6  4  0
  3 12  1  0
  3 14  2  0
  3 15  3  0
  3 18  1  0
  4  6  1  0
  4 11  1  0
  5  6  1  0
  5  7  4  0
  5  8  4  0
  5  9  3  0
  6  7  3  0
  6 14  1  0
  6 16  3  0
  6 22  1  0
  8  9  4  0
  8 18  4  0
  8 19  1  0
  8 20  3  0
  9 16  1  0
  9 17  4  0
  9 18  4  0
  9 19  1  0
 10 15  2  0
 11 16  1  0
 11 22  4  0
 12 14  1  0
 12 19  1  0
 12 23  3  0
 13 15  2  0
 13 16  2  0
 13 19  2  0
 16 19  4  0
 16 22  2  0
 17 20  2  0
 18 20  2  0
 18 22  1  0
 18 23  1  0
 19 22  1  0
 20 23  4  0
 21 22  3  0
M  END
$$$$

 Created by Python create_sdf_string function

 28 31  0  0  0  0  0  0  0  0999 V2000
    0.6395   -8.7169   15.1012 C   0  0  0  0  0  0  0  0  0  0  0  0
    6.2979   -8.0847   18.0323 C   0  0  0  0  0  0  0  0  0  0  0  0
    5.7795   -7.6452   16.8765 C   0  0  0  0  0  0  0  0  0  0  0  0
    3.0717   -4.5810   27.3400 C   0  0  0  0  0  0  0  0  0  0  0  0
    8.3626   -7.0021   17.6658 C   0  0  0  0  0  0  0  0  0  0  0  0
    2.6416   -5.8045   26.5009 C   0  0  0  0  0  0  0  0  0  0  0  0
    7.9240   -6.4957   16.5193 C   0  0  0  0  0  0  0  0  0  0  0  0
    7.5963   -7.8109   18.3478 C   0  0  0  0  0  0  0  0  0  0  0  0
    3.5052   -7.4907   29.2052 C   0  0  0  0  0  0  0  0  0  0  0  0
    3.6115   -8.7558   17.0975 C   0  0  0  0  0  0  0  0  0  0  0  0
    3.9716   -7.3202   15.3183 C   0  0  0  0  0  0  0  0  0  0  0  0
    4.4925   -7.9127   16.4616 C   0  0  0  0  0  0  0  0  0  0  0  0
    0.1300   -8.5811   14.3436 N   0  0  0  0  0  0  0  0  0  0  0  0
    3.1493   -5.1502   28.7348 C   0  0  0  0  0  0  0  0  0  0  0  0
    2.3179   -8.9450   16.6980 C   0  0  0  0  0  0  0  0  0  0  0  0
    4.7185  -10.6910   28.8025 C   0  0  0  0  0  0  0  0  0  0  0  0
    1.2957   -5.7718   26.4159 C   0  0  0  0  0  0  0  0  0  0  0  0
    4.4105  -11.4678   28.9028 O   0  0  0  0  0  0  0  0  0  0  0  0
    3.2152   -6.4915   28.6045 C   0  0  0  0  0  0  0  0  0  0  0  0
    3.6201   -8.7730   28.1937 C   0  0  0  0  0  0  0  0  0  0  0  0
    3.9111   -7.7807   30.4068 C   0  0  0  0  0  0  0  0  0  0  0  0
    3.1551   -8.2140   27.0412 N   0  0  0  0  0  0  0  0  0  0  0  0
    2.7050   -7.6078   14.7943 C   0  0  0  0  0  0  0  0  0  0  0  0
    6.6580   -6.8102   16.0771 C   0  0  0  0  0  0  0  0  0  0  0  0
    4.4709   -9.0711   30.3929 N   0  0  0  0  0  0  0  0  0  0  0  0
    3.0504   -6.9436   27.1653 C   0  0  0  0  0  0  0  0  0  0  0  0
    1.8902   -8.4079   15.5390 C   0  0  0  0  0  0  0  0  0  0  0  0
    4.2300   -9.4805   28.9928 C   0  0  0  0  0  0  0  0  0  0  0  0
  1 13  1  0
  1 27  1  0
  2  3  4  0
  2  8  4  0
  3 12  1  0
  3 24  4  0
  4  6  1  0
  4 14  1  0
  5  7  4  0
  5  8  4  0
  6 17  1  0
  6 26  1  0
  7 24  4  0
  9 19  1  0
  9 20  4  0
  9 21  4  0
 10 12  4  0
 10 15  4  0
 11 12  4  0
 11 23  4  0
 14 19  1  0
 15 27  4  0
 16 18  2  0
 16 28  1  0
 19 26  2  0
 20 22  4  0
 20 28  4  0
 21 25  4  0
 22 26  1  0
 23 27  4  0
 25 28  4  0
M  END
$$$$

 Created by Python create_sdf_string function

 28 47  0  0  0  0  0  0  0  0999 V2000
    0.5909   -8.7637   15.0514 N   0  0  0  0  0  0  0  0  0  0  0  0
    5.9457   -7.5167   18.7052 C   0  0  0  0  0  0  0  0  0  0  0  0
    5.7462   -7.3791   17.0327 C   0  0  0  0  0  0  0  0  0  0  0  0
    2.7801   -4.8805   27.1498 C   0  0  0  0  0  0  0  0  0  0  0  0
    7.9253   -6.9501   17.6739 C   0  0  0  0  0  0  0  0  0  0  0  0
    2.6008   -5.5471   26.8376 C   0  0  0  0  0  0  0  0  0  0  0  0
    7.3390   -6.7624   16.7405 C   0  0  0  0  0  0  0  0  0  0  0  0
    7.7094   -7.8749   18.4458 C   0  0  0  0  0  0  0  0  0  0  0  0
    3.4906   -7.1155   29.3620 C   0  0  0  0  0  0  0  0  0  0  0  0
    3.5670   -8.6967   16.7948 C   0  0  0  0  0  0  0  0  0  0  0  0
    3.7646   -7.8341   15.6655 C   0  0  0  0  0  0  0  0  0  0  0  0
    3.9143   -7.9044   16.1977 C   0  0  0  0  0  0  0  0  0  0  0  0
    0.6913   -8.2141   14.3483 N   0  0  0  0  0  0  0  0  0  0  0  0
    2.9207   -5.3200   29.2113 C   0  0  0  0  0  0  0  0  0  0  0  0
    2.2874   -9.1035   16.8698 C   0  0  0  0  0  0  0  0  0  0  0  0
    4.7027  -11.9558   28.4961 O   0  0  0  0  0  0  0  0  0  0  0  0
    3.5276   -6.4461   28.6348 C   0  0  0  0  0  0  0  0  0  0  0  0
    4.0951   -7.1637   30.6699 Cl  0  0  0  0  0  0  0  0  0  0  0  0
    3.4694   -8.2711   27.0402 N   0  0  0  0  0  0  0  0  0  0  0  0
    2.8773   -7.3955   14.8358 C   0  0  0  0  0  0  0  0  0  0  0  0
    6.6436   -6.8174   16.2726 C   0  0  0  0  0  0  0  0  0  0  0  0
    4.4585   -8.2998   30.5780 F   0  0  0  0  0  0  0  0  0  0  0  0
    2.9342   -6.9808   26.9438 C   0  0  0  0  0  0  0  0  0  0  0  0
    4.1516   -9.8579   28.2331 C   0  0  0  0  0  0  0  0  0  0  0  0
    5.1052  -10.7628   28.5659 He  0  0  0  0  0  0  0  0  0  0  0  0
    0.2294   -6.1270   26.5167 He  0  0  0  0  0  0  0  0  0  0  0  0
    4.0951   -9.1799   28.5518 He  0  0  0  0  0  0  0  0  0  0  0  0
    2.0696   -7.7911   15.2998 He  0  0  0  0  0  0  0  0  0  0  0  0
  1 18  4  0
  1 19  3  0
  1 22  4  0
  1 24  2  0
  2  3  4  0
  2  8  4  0
  2 22  4  0
  3 10  2  0
  3 12  1  0
  3 21  4  0
  3 24  2  0
  4  6  1  0
  4  8  1  0
  4 12  4  0
  4 14  2  0
  5  8  4  0
  5 20  3  0
  5 21  2  0
  6  8  4  0
  6 17  1  0
  6 21  3  0
  6 23  1  0
  7 21  4  0
  8 10  3  0
  8 22  1  0
  8 24  1  0
  9 15  2  0
  9 18  4  0
 10 12  4  0
 10 21  2  0
 11 12  4  0
 11 21  1  0
 12 15  4  0
 12 16  3  0
 12 21  2  0
 13 16  1  0
 13 24  3  0
 14 17  1  0
 17 23  2  0
 17 24  2  0
 18 19  4  0
 19 21  3  0
 19 23  1  0
 20 22  2  0
 20 23  3  0
 22 24  4  0
 23 24  4  0
M  END
$$$$

 Created by Python create_sdf_string function

 28 31  0  0  0  0  0  0  0  0999 V2000
    0.5515   -8.6424   15.0615 C   0  0  0  0  0  0  0  0  0  0  0  0
    6.1086   -7.9889   18.1726 C   0  0  0  0  0  0  0  0  0  0  0  0
    5.6354   -7.5781   16.9432 C   0  0  0  0  0  0  0  0  0  0  0  0
    2.4468   -4.6158   27.4540 C   0  0  0  0  0  0  0  0  0  0  0  0
    8.2088   -6.9949   17.7766 C   0  0  0  0  0  0  0  0  0  0  0  0
    2.2140   -5.8308   26.6053 C   0  0  0  0  0  0  0  0  0  0  0  0
    7.8107   -6.5397   16.6205 C   0  0  0  0  0  0  0  0  0  0  0  0
    7.3691   -7.6966   18.4974 C   0  0  0  0  0  0  0  0  0  0  0  0
    3.7118   -7.3088   29.1858 C   0  0  0  0  0  0  0  0  0  0  0  0
    3.5299   -8.7307   17.1313 C   0  0  0  0  0  0  0  0  0  0  0  0
    3.9171   -7.2637   15.3258 C   0  0  0  0  0  0  0  0  0  0  0  0
    4.4200   -7.8725   16.5070 C   0  0  0  0  0  0  0  0  0  0  0  0
    0.1276   -8.2353   14.0329 N   0  0  0  0  0  0  0  0  0  0  0  0
    2.9940   -5.1007   28.7957 C   0  0  0  0  0  0  0  0  0  0  0  0
    2.2510   -8.9930   16.6543 C   0  0  0  0  0  0  0  0  0  0  0  0
    4.6156  -10.6335   28.8107 C   0  0  0  0  0  0  0  0  0  0  0  0
    0.8315   -5.9457   26.4432 C   0  0  0  0  0  0  0  0  0  0  0  0
    4.5385  -11.4921   28.6905 O   0  0  0  0  0  0  0  0  0  0  0  0
    3.2762   -6.4793   28.5503 C   0  0  0  0  0  0  0  0  0  0  0  0
    3.8771   -8.6296   28.3284 C   0  0  0  0  0  0  0  0  0  0  0  0
    4.1455   -7.6101   30.4302 C   0  0  0  0  0  0  0  0  0  0  0  0
    3.3417   -8.3245   27.1045 N   0  0  0  0  0  0  0  0  0  0  0  0
    2.6821   -7.5202   14.8000 C   0  0  0  0  0  0  0  0  0  0  0  0
    6.5171   -6.8026   16.1521 C   0  0  0  0  0  0  0  0  0  0  0  0
    4.5594   -8.9459   30.4427 C   0  0  0  0  0  0  0  0  0  0  0  0
    2.8691   -6.8510   27.1119 C   0  0  0  0  0  0  0  0  0  0  0  0
    1.8461   -8.3772   15.5004 C   0  0  0  0  0  0  0  0  0  0  0  0
    4.3992   -9.5522   29.0517 C   0  0  0  0  0  0  0  0  0  0  0  0
  1 13  1  0
  1 27  1  0
  2  3  4  0
  2  8  4  0
  3 12  1  0
  3 24  4  0
  4  6  1  0
  4 14  2  0
  5  7  4  0
  5  8  4  0
  6 17  1  0
  6 26  1  0
  7 24  4  0
  9 19  4  0
  9 20  4  0
  9 21  4  0
 10 12  4  0
 10 15  4  0
 11 12  4  0
 11 23  4  0
 14 19  1  0
 15 27  4  0
 16 18  2  0
 16 28  1  0
 19 26  2  0
 20 22  1  0
 20 28  4  0
 21 25  4  0
 22 26  1  0
 23 27  4  0
 25 28  4  0
M  END
$$$$

 Created by Python create_sdf_string function

 28 49  0  0  0  0  0  0  0  0999 V2000
    6.8960   -7.8381   18.3360 C   0  0  0  0  0  0  0  0  0  0  0  0
    5.6683   -7.4755   16.9345 C   0  0  0  0  0  0  0  0  0  0  0  0
    2.6894   -4.8333   27.3029 S   0  0  0  0  0  0  0  0  0  0  0  0
    8.2661   -6.9312   17.8639 C   0  0  0  0  0  0  0  0  0  0  0  0
    3.0094   -6.1308   26.4313 C   0  0  0  0  0  0  0  0  0  0  0  0
    7.7803   -5.9063   16.8760 C   0  0  0  0  0  0  0  0  0  0  0  0
    7.2933   -7.6060   18.4638 F   0  0  0  0  0  0  0  0  0  0  0  0
    4.1129   -7.1735   29.3884 C   0  0  0  0  0  0  0  0  0  0  0  0
    3.8512   -8.8945   17.5278 C   0  0  0  0  0  0  0  0  0  0  0  0
    4.2854   -6.9453   15.3895 C   0  0  0  0  0  0  0  0  0  0  0  0
    4.8862   -7.3632   16.3939 C   0  0  0  0  0  0  0  0  0  0  0  0
    0.4218   -8.2349   13.8359 N   0  0  0  0  0  0  0  0  0  0  0  0
    4.2956  -10.8201   29.1434 I   0  0  0  0  0  0  0  0  0  0  0  0
    0.9998   -5.8473   25.8296 C   0  0  0  0  0  0  0  0  0  0  0  0
    3.3752   -6.8303   28.1719 C   0  0  0  0  0  0  0  0  0  0  0  0
    4.0501   -8.7406   27.7472 C   0  0  0  0  0  0  0  0  0  0  0  0
    4.3923   -7.5383   30.4260 C   0  0  0  0  0  0  0  0  0  0  0  0
    3.3979   -8.7780   27.7177 N   0  0  0  0  0  0  0  0  0  0  0  0
    2.5956   -7.4739   14.6738 C   0  0  0  0  0  0  0  0  0  0  0  0
    6.4438   -7.0549   16.0181 C   0  0  0  0  0  0  0  0  0  0  0  0
    4.7509   -8.8955   30.2353 C   0  0  0  0  0  0  0  0  0  0  0  0
    2.0194   -8.5807   14.8465 C   0  0  0  0  0  0  0  0  0  0  0  0
    4.4490   -9.0474   29.0755 F   0  0  0  0  0  0  0  0  0  0  0  0
    0.6352   -8.3325   14.9487 He  0  0  0  0  0  0  0  0  0  0  0  0
    2.6649   -5.6318   29.0424 He  0  0  0  0  0  0  0  0  0  0  0  0
    2.3381   -9.0269   16.4365 He  0  0  0  0  0  0  0  0  0  0  0  0
    4.3260  -11.5170   29.2356 He  0  0  0  0  0  0  0  0  0  0  0  0
    2.8179   -7.3847   26.7434 He  0  0  0  0  0  0  0  0  0  0  0  0
  1  7  4  0
  1 13  1  0
  1 18  2  0
  2  6  2  0
  2 10  4  0
  2 11  1  0
  2 18  3  0
  2 20  4  0
  3  5  1  0
  3  6  4  0
  3 10  2  0
  3 20  3  0
  3 22  4  0
  4  5  2  0
  4  6  4  0
  4  7  4  0
  4 12  1  0
  5 14  1  0
  5 16  4  0
  5 17  1  0
  6  8  1  0
  6 13  3  0
  6 20  3  0
  8 14  1  0
  8 15  4  0
  8 16  4  0
  8 17  4  0
  9 11  4  0
  9 12  2  0
  9 19  3  0
 10 11  4  0
 10 15  4  0
 10 19  4  0
 11 19  3  0
 12 19  2  0
 13 19  1  0
 13 23  1  0
 14 20  4  0
 14 21  2  0
 16 18  1  0
 16 20  1  0
 16 23  4  0
 17 18  4  0
 17 21  4  0
 18 22  4  0
 19 22  4  0
 19 23  2  0
 20 21  1  0
 21 23  4  0
M  END
$$$$

 Created by Python create_sdf_string function

 28 31  0  0  0  0  0  0  0  0999 V2000
    0.7172   -8.5844   14.9097 C   0  0  0  0  0  0  0  0  0  0  0  0
    6.3337   -8.0206   18.0975 C   0  0  0  0  0  0  0  0  0  0  0  0
    5.8200   -7.4920   16.8917 C   0  0  0  0  0  0  0  0  0  0  0  0
    2.5713   -4.8594   27.3436 C   0  0  0  0  0  0  0  0  0  0  0  0
    8.3408   -6.7736   17.8082 C   0  0  0  0  0  0  0  0  0  0  0  0
    2.5123   -6.1427   26.4423 C   0  0  0  0  0  0  0  0  0  0  0  0
    7.9681   -6.2580   16.6806 C   0  0  0  0  0  0  0  0  0  0  0  0
    7.5958   -7.6950   18.4715 C   0  0  0  0  0  0  0  0  0  0  0  0
    3.9469   -7.3423   29.1775 C   0  0  0  0  0  0  0  0  0  0  0  0
    3.7545   -8.6812   16.9642 C   0  0  0  0  0  0  0  0  0  0  0  0
    4.1086   -7.1505   15.2566 C   0  0  0  0  0  0  0  0  0  0  0  0
    4.6066   -7.7911   16.4282 C   0  0  0  0  0  0  0  0  0  0  0  0
    0.3240   -8.1575   13.7535 N   0  0  0  0  0  0  0  0  0  0  0  0
    2.9245   -5.4256   28.5817 C   0  0  0  0  0  0  0  0  0  0  0  0
    2.4577   -8.9189   16.5122 C   0  0  0  0  0  0  0  0  0  0  0  0
    4.3895  -10.8178   28.8748 C   0  0  0  0  0  0  0  0  0  0  0  0
    1.2138   -5.8404   26.0687 C   0  0  0  0  0  0  0  0  0  0  0  0
    4.3012  -11.6265   29.1974 O   0  0  0  0  0  0  0  0  0  0  0  0
    3.3551   -6.7583   28.4494 C   0  0  0  0  0  0  0  0  0  0  0  0
    3.8686   -8.5172   28.4776 C   0  0  0  0  0  0  0  0  0  0  0  0
    4.6094   -7.5713   30.3998 C   0  0  0  0  0  0  0  0  0  0  0  0
    3.4543   -8.6498   27.2268 N   0  0  0  0  0  0  0  0  0  0  0  0
    2.8506   -7.3654   14.7474 C   0  0  0  0  0  0  0  0  0  0  0  0
    6.6860   -6.6108   16.1989 C   0  0  0  0  0  0  0  0  0  0  0  0
    4.8304   -8.9368   30.4239 C   0  0  0  0  0  0  0  0  0  0  0  0
    2.9226   -7.2294   27.0417 C   0  0  0  0  0  0  0  0  0  0  0  0
    2.0282   -8.2834   15.3982 C   0  0  0  0  0  0  0  0  0  0  0  0
    4.3767   -9.5654   29.2204 C   0  0  0  0  0  0  0  0  0  0  0  0
  1 13  1  0
  1 27  1  0
  2  3  4  0
  2  8  4  0
  3 12  1  0
  3 24  4  0
  4  6  1  0
  4 14  1  0
  5  7  4  0
  5  8  4  0
  6 17  1  0
  6 26  1  0
  7 24  4  0
  9 19  4  0
  9 20  4  0
  9 21  4  0
 10 12  4  0
 10 15  4  0
 11 12  4  0
 11 23  4  0
 14 19  1  0
 15 27  4  0
 16 18  2  0
 16 28  1  0
 19 26  1  0
 20 22  1  0
 20 28  4  0
 21 25  4  0
 22 26  4  0
 23 27  4  0
 25 28  4  0
M  END
$$$$

 Created by Python create_sdf_string function

 28 50  0  0  0  0  0  0  0  0999 V2000
    6.3659   -8.1664   17.8468 C   0  0  0  0  0  0  0  0  0  0  0  0
    5.8051   -7.3027   16.8159 C   0  0  0  0  0  0  0  0  0  0  0  0
    2.0932   -4.7605   27.2873 C   0  0  0  0  0  0  0  0  0  0  0  0
    8.3262   -6.4253   17.5586 C   0  0  0  0  0  0  0  0  0  0  0  0
    2.4864   -6.8975   26.0838 C   0  0  0  0  0  0  0  0  0  0  0  0
    8.3581   -6.1736   16.9561 C   0  0  0  0  0  0  0  0  0  0  0  0
    7.4856   -7.5316   18.7035 C   0  0  0  0  0  0  0  0  0  0  0  0
    3.3000   -8.1518   28.7039 C   0  0  0  0  0  0  0  0  0  0  0  0
    3.9508   -7.4788   15.0422 N   0  0  0  0  0  0  0  0  0  0  0  0
    4.5719   -7.5537   16.2868 P   0  0  0  0  0  0  0  0  0  0  0  0
   -0.2179   -7.6407   13.8079 N   0  0  0  0  0  0  0  0  0  0  0  0
    3.5941   -5.5733   28.4832 C   0  0  0  0  0  0  0  0  0  0  0  0
    2.5976   -8.9397   16.5536 N   0  0  0  0  0  0  0  0  0  0  0  0
    4.1930  -10.8308   28.6201 C   0  0  0  0  0  0  0  0  0  0  0  0
    1.6073   -5.7477   25.9046 C   0  0  0  0  0  0  0  0  0  0  0  0
    3.8972  -12.1246   29.6536 O   0  0  0  0  0  0  0  0  0  0  0  0
    3.2975   -6.3698   28.3380 C   0  0  0  0  0  0  0  0  0  0  0  0
    3.5067   -8.9707   28.1461 C   0  0  0  0  0  0  0  0  0  0  0  0
    3.3211   -8.4489   27.1213 F   0  0  0  0  0  0  0  0  0  0  0  0
    2.9939   -7.3191   14.5517 C   0  0  0  0  0  0  0  0  0  0  0  0
    6.3751   -6.5265   16.0658 C   0  0  0  0  0  0  0  0  0  0  0  0
    2.1226   -8.4387   15.3780 C   0  0  0  0  0  0  0  0  0  0  0  0
    3.9714   -9.6298   28.7176 C   0  0  0  0  0  0  0  0  0  0  0  0
    0.3718   -8.6694   15.0097 He  0  0  0  0  0  0  0  0  0  0  0  0
    3.8708   -8.8208   17.0651 He  0  0  0  0  0  0  0  0  0  0  0  0
    4.6146   -7.8119   29.9357 He  0  0  0  0  0  0  0  0  0  0  0  0
    4.2146   -8.9431   30.5406 He  0  0  0  0  0  0  0  0  0  0  0  0
    3.0072   -6.7356   27.5517 He  0  0  0  0  0  0  0  0  0  0  0  0
  1  2  3  0
  1  6  4  0
  1  9  4  0
  1 15  4  0
  1 23  4  0
  2 10  1  0
  3  5  1  0
  3  8  2  0
  3 12  1  0
  3 16  4  0
  3 21  1  0
  3 23  1  0
  4  6  4  0
  4  7  4  0
  4 11  1  0
  4 15  2  0
  4 18  3  0
  4 22  4  0
  5  7  3  0
  5  9  1  0
  5 14  2  0
  5 22  3  0
  6 16  1  0
  6 18  1  0
  6 21  4  0
  6 23  4  0
  8 15  4  0
  8 17  4  0
  8 18  4  0
  8 20  1  0
  9 20  4  0
 10 12  4  0
 10 14  3  0
 11 20  1  0
 12 17  1  0
 12 19  3  0
 13 14  1  0
 13 21  4  0
 13 22  4  0
 14 16  2  0
 14 17  4  0
 14 18  3  0
 14 23  1  0
 16 20  4  0
 16 23  3  0
 18 19  1  0
 18 21  2  0
 18 23  4  0
 20 22  3  0
 21 23  1  0
M  END
$$$$

 Created by Python create_sdf_string function

 28 31  0  0  0  0  0  0  0  0999 V2000
    0.6666   -8.6116   15.0446 C   0  0  0  0  0  0  0  0  0  0  0  0
    6.2878   -7.9723   17.9573 C   0  0  0  0  0  0  0  0  0  0  0  0
    5.8462   -7.4620   16.7673 C   0  0  0  0  0  0  0  0  0  0  0  0
    2.2940   -4.5438   27.4361 C   0  0  0  0  0  0  0  0  0  0  0  0
    8.2903   -6.7197   17.7447 C   0  0  0  0  0  0  0  0  0  0  0  0
    2.3789   -6.5223   26.0489 C   0  0  0  0  0  0  0  0  0  0  0  0
    7.8753   -6.1750   16.6120 C   0  0  0  0  0  0  0  0  0  0  0  0
    7.5771   -7.6541   18.3913 C   0  0  0  0  0  0  0  0  0  0  0  0
    3.7856   -7.6368   28.9930 C   0  0  0  0  0  0  0  0  0  0  0  0
    3.7511   -8.6532   16.9333 C   0  0  0  0  0  0  0  0  0  0  0  0
    4.0748   -7.1987   15.1235 C   0  0  0  0  0  0  0  0  0  0  0  0
    4.5888   -7.7890   16.2878 C   0  0  0  0  0  0  0  0  0  0  0  0
    0.1186   -7.8263   14.0452 N   0  0  0  0  0  0  0  0  0  0  0  0
    3.0808   -5.2718   28.3893 C   0  0  0  0  0  0  0  0  0  0  0  0
    2.4682   -8.9219   16.5484 C   0  0  0  0  0  0  0  0  0  0  0  0
    3.9542  -11.1929   28.8728 C   0  0  0  0  0  0  0  0  0  0  0  0
    1.6883   -5.2039   26.4152 C   0  0  0  0  0  0  0  0  0  0  0  0
    4.1111  -12.0028   29.4494 O   0  0  0  0  0  0  0  0  0  0  0  0
    3.3338   -6.6254   28.2145 C   0  0  0  0  0  0  0  0  0  0  0  0
    3.6592   -8.9355   28.2724 C   0  0  0  0  0  0  0  0  0  0  0  0
    4.2201   -7.8842   30.1890 N   0  0  0  0  0  0  0  0  0  0  0  0
    3.1469   -8.6022   27.0530 N   0  0  0  0  0  0  0  0  0  0  0  0
    2.7944   -7.4533   14.6596 C   0  0  0  0  0  0  0  0  0  0  0  0
    6.6663   -6.5786   16.0680 C   0  0  0  0  0  0  0  0  0  0  0  0
    4.4380   -9.2548   30.3697 N   0  0  0  0  0  0  0  0  0  0  0  0
    2.9309   -7.2034   26.9670 C   0  0  0  0  0  0  0  0  0  0  0  0
    1.9850   -8.3329   15.4198 C   0  0  0  0  0  0  0  0  0  0  0  0
    4.0287   -9.9068   29.1494 C   0  0  0  0  0  0  0  0  0  0  0  0
  1 13  1  0
  1 27  1  0
  2  3  4  0
  2  8  4  0
  3 12  1  0
  3 24  4  0
  4 14  1  0
  4 17  1  0
  5  7  4  0
  5  8  4  0
  6 17  1  0
  6 26  1  0
  7 24  4  0
  9 19  4  0
  9 20  4  0
  9 21  4  0
 10 12  4  0
 10 15  4  0
 11 12  4  0
 11 23  4  0
 14 19  1  0
 15 27  4  0
 16 18  2  0
 16 28  1  0
 19 26  4  0
 20 22  4  0
 20 28  4  0
 21 25  4  0
 22 26  4  0
 23 27  4  0
 25 28  4  0
M  END
$$$$

 Created by Python create_sdf_string function

 28 49  0  0  0  0  0  0  0  0999 V2000
    0.6813   -8.6538   15.0305 C   0  0  0  0  0  0  0  0  0  0  0  0
    5.8924   -8.1671   18.0172 C   0  0  0  0  0  0  0  0  0  0  0  0
    5.7550   -7.3142   16.7302 C   0  0  0  0  0  0  0  0  0  0  0  0
    8.3334   -6.9854   17.5753 C   0  0  0  0  0  0  0  0  0  0  0  0
    2.3147   -7.2156   26.3441 C   0  0  0  0  0  0  0  0  0  0  0  0
    7.8107   -6.3541   15.7476 C   0  0  0  0  0  0  0  0  0  0  0  0
    7.3837   -7.6991   18.3426 C   0  0  0  0  0  0  0  0  0  0  0  0
    4.4497   -7.6817   29.2638 C   0  0  0  0  0  0  0  0  0  0  0  0
    4.1904   -8.2729   16.9287 C   0  0  0  0  0  0  0  0  0  0  0  0
    4.0890   -7.6237   14.6774 S   0  0  0  0  0  0  0  0  0  0  0  0
    4.4652   -7.6587   16.4242 P   0  0  0  0  0  0  0  0  0  0  0  0
    0.3266   -8.1089   14.4683 P   0  0  0  0  0  0  0  0  0  0  0  0
    2.3016   -8.9033   16.4689 C   0  0  0  0  0  0  0  0  0  0  0  0
    3.7156  -10.8804   28.7243 C   0  0  0  0  0  0  0  0  0  0  0  0
    1.3620   -5.2168   26.4523 C   0  0  0  0  0  0  0  0  0  0  0  0
    4.1609  -12.1857   29.7454 O   0  0  0  0  0  0  0  0  0  0  0  0
    2.7578   -6.3255   27.8335 C   0  0  0  0  0  0  0  0  0  0  0  0
    3.6831   -9.1247   27.7519 C   0  0  0  0  0  0  0  0  0  0  0  0
    4.1034   -8.0813   29.7303 N   0  0  0  0  0  0  0  0  0  0  0  0
    2.8820   -7.4952   14.6540 C   0  0  0  0  0  0  0  0  0  0  0  0
    6.4769   -6.6517   16.3426 C   0  0  0  0  0  0  0  0  0  0  0  0
    4.5272   -9.9822   30.2403 N   0  0  0  0  0  0  0  0  0  0  0  0
    3.2997   -6.9291   27.4363 N   0  0  0  0  0  0  0  0  0  0  0  0
    1.8465   -8.0443   15.4515 C   0  0  0  0  0  0  0  0  0  0  0  0
    2.2743   -4.8699   27.7525 He  0  0  0  0  0  0  0  0  0  0  0  0
    3.4211   -4.9734   28.1430 He  0  0  0  0  0  0  0  0  0  0  0  0
    3.0065   -8.1384   26.8780 He  0  0  0  0  0  0  0  0  0  0  0  0
    3.7845   -9.3313   28.7875 He  0  0  0  0  0  0  0  0  0  0  0  0
  1 12  1  0
  1 14  3  0
  1 24  1  0
  2  3  4  0
  2  5  3  0
  2  7  4  0
  2 16  4  0
  3  4  2  0
  3 12  3  0
  3 19  3  0
  3 21  4  0
  4  6  4  0
  4  7  4  0
  4  8  4  0
  5 10  1  0
  5 12  3  0
  5 14  3  0
  5 15  2  0
  5 19  1  0
  5 23  1  0
  6 16  3  0
  6 18  3  0
  6 21  4  0
  7 10  2  0
  7 13  1  0
  7 23  1  0
  8 10  1  0
  8 11  3  0
  8 17  2  0
  8 18  4  0
  9 11  4  0
  9 12  4  0
  9 13  4  0
 10 11  4  0
 10 20  3  0
 11 18  3  0
 11 23  1  0
 12 15  3  0
 14 16  2  0
 14 23  4  0
 15 19  1  0
 16 21  1  0
 17 19  1  0
 17 23  4  0
 18 19  3  0
 18 23  2  0
 19 22  4  0
 20 23  3  0
 20 24  4  0
M  END
$$$$

 Created by Python create_sdf_string function

 28 31  0  0  0  0  0  0  0  0999 V2000
    0.5457   -8.5981   15.0004 C   0  0  0  0  0  0  0  0  0  0  0  0
    6.2259   -7.9451   17.9297 C   0  0  0  0  0  0  0  0  0  0  0  0
    5.7336   -7.5148   16.6773 C   0  0  0  0  0  0  0  0  0  0  0  0
    2.2714   -4.5224   27.6698 C   0  0  0  0  0  0  0  0  0  0  0  0
    8.3098   -6.9175   17.5565 C   0  0  0  0  0  0  0  0  0  0  0  0
    1.9756   -6.4433   26.2553 C   0  0  0  0  0  0  0  0  0  0  0  0
    7.9091   -6.3721   16.3953 C   0  0  0  0  0  0  0  0  0  0  0  0
    7.5356   -7.6930   18.2374 C   0  0  0  0  0  0  0  0  0  0  0  0
    3.8853   -7.6136   28.9586 C   0  0  0  0  0  0  0  0  0  0  0  0
    3.6178   -8.5536   16.9533 C   0  0  0  0  0  0  0  0  0  0  0  0
    4.0042   -7.2571   15.0110 C   0  0  0  0  0  0  0  0  0  0  0  0
    4.5098   -7.7819   16.2363 C   0  0  0  0  0  0  0  0  0  0  0  0
    0.0362   -8.0553   14.1503 N   0  0  0  0  0  0  0  0  0  0  0  0
    3.2338   -5.2072   28.3988 C   0  0  0  0  0  0  0  0  0  0  0  0
    2.3159   -8.7772   16.5709 C   0  0  0  0  0  0  0  0  0  0  0  0
    3.7055  -11.1973   28.7231 C   0  0  0  0  0  0  0  0  0  0  0  0
    1.5411   -5.1915   26.6635 C   0  0  0  0  0  0  0  0  0  0  0  0
    4.1065  -11.9926   29.4216 O   0  0  0  0  0  0  0  0  0  0  0  0
    3.3663   -6.5918   28.1591 C   0  0  0  0  0  0  0  0  0  0  0  0
    3.6463   -8.8931   28.1217 C   0  0  0  0  0  0  0  0  0  0  0  0
    4.4301   -7.9200   30.0494 N   0  0  0  0  0  0  0  0  0  0  0  0
    3.0932   -8.4608   26.9581 N   0  0  0  0  0  0  0  0  0  0  0  0
    2.7397   -7.5624   14.5755 C   0  0  0  0  0  0  0  0  0  0  0  0
    6.6337   -6.7295   15.9019 C   0  0  0  0  0  0  0  0  0  0  0  0
    4.4951   -9.3956   30.1963 N   0  0  0  0  0  0  0  0  0  0  0  0
    2.8318   -7.1057   27.0182 N   0  0  0  0  0  0  0  0  0  0  0  0
    1.8905   -8.3098   15.3862 C   0  0  0  0  0  0  0  0  0  0  0  0
    3.9902   -9.8913   28.9441 C   0  0  0  0  0  0  0  0  0  0  0  0
  1 13  1  0
  1 27  1  0
  2  3  4  0
  2  8  4  0
  3 12  1  0
  3 24  4  0
  4 14  1  0
  4 17  1  0
  5  7  4  0
  5  8  4  0
  6 17  1  0
  6 26  1  0
  7 24  4  0
  9 19  4  0
  9 20  4  0
  9 21  4  0
 10 12  4  0
 10 15  4  0
 11 12  4  0
 11 23  4  0
 14 19  1  0
 15 27  4  0
 16 18  2  0
 16 28  1  0
 19 26  4  0
 20 22  4  0
 20 28  4  0
 21 25  4  0
 22 26  4  0
 23 27  4  0
 25 28  4  0
M  END
$$$$

 Created by Python create_sdf_string function

 28 72  0  0  0  0  0  0  0  0999 V2000
    0.3286   -8.6877   14.9583 C   0  0  0  0  0  0  0  0  0  0  0  0
    6.2910   -7.8465   17.7548 C   0  0  0  0  0  0  0  0  0  0  0  0
    5.7273   -7.6656   16.9051 C   0  0  0  0  0  0  0  0  0  0  0  0
    2.0091   -4.9274   27.6849 C   0  0  0  0  0  0  0  0  0  0  0  0
    8.1847   -6.9545   17.4641 C   0  0  0  0  0  0  0  0  0  0  0  0
    1.8144   -6.5620   26.5444 C   0  0  0  0  0  0  0  0  0  0  0  0
    8.5434   -6.6767   15.9250 O   0  0  0  0  0  0  0  0  0  0  0  0
    7.5262   -7.4924   18.2596 C   0  0  0  0  0  0  0  0  0  0  0  0
    4.1631   -7.8151   29.1727 C   0  0  0  0  0  0  0  0  0  0  0  0
    4.1688   -8.4302   17.8109 C   0  0  0  0  0  0  0  0  0  0  0  0
    4.1707   -6.5952   14.7782 C   0  0  0  0  0  0  0  0  0  0  0  0
    4.5755   -7.9386   16.7621 C   0  0  0  0  0  0  0  0  0  0  0  0
   -0.1557   -8.8063   14.3061 O   0  0  0  0  0  0  0  0  0  0  0  0
    2.9437   -5.5998   27.7022 C   0  0  0  0  0  0  0  0  0  0  0  0
    2.2834   -8.8327   16.5978 C   0  0  0  0  0  0  0  0  0  0  0  0
    3.9395  -11.3669   28.3010 C   0  0  0  0  0  0  0  0  0  0  0  0
    2.0822   -6.0091   26.6808 C   0  0  0  0  0  0  0  0  0  0  0  0
    4.5061  -11.4959   29.7503 O   0  0  0  0  0  0  0  0  0  0  0  0
    3.7831   -6.8903   28.6059 C   0  0  0  0  0  0  0  0  0  0  0  0
    3.5299   -9.0548   27.9532 C   0  0  0  0  0  0  0  0  0  0  0  0
    4.0565   -7.5696   30.1541 S   0  0  0  0  0  0  0  0  0  0  0  0
    3.4378   -8.7375   26.4126 N   0  0  0  0  0  0  0  0  0  0  0  0
    2.9056   -7.3481   14.6309 C   0  0  0  0  0  0  0  0  0  0  0  0
    6.5240   -6.5166   16.0652 C   0  0  0  0  0  0  0  0  0  0  0  0
    5.0490   -8.9906   30.4887 N   0  0  0  0  0  0  0  0  0  0  0  0
    2.6840   -6.9069   26.7585 N   0  0  0  0  0  0  0  0  0  0  0  0
    3.9802   -9.9271   28.8933 O   0  0  0  0  0  0  0  0  0  0  0  0
    1.4174   -8.7585   15.3587 He  0  0  0  0  0  0  0  0  0  0  0  0
  1  2  4  0
  1 13  1  0
  2  3  4  0
  2  8  4  0
  2  9  3  0
  2 13  2  0
  2 24  1  0
  3 10  3  0
  3 12  1  0
  3 24  4  0
  3 25  2  0
  3 26  2  0
  4  9  4  0
  4 14  1  0
  4 15  3  0
  4 17  1  0
  4 22  1  0
  4 26  4  0
  5  7  4  0
  5  8  4  0
  5  9  1  0
  5 14  3  0
  5 15  2  0
  6  9  3  0
  6 11  3  0
  6 17  1  0
  6 18  4  0
  6 20  2  0
  6 26  2  0
  7 12  2  0
  7 18  1  0
  7 25  4  0
  8 10  4  0
  8 23  3  0
  9 11  1  0
  9 12  3  0
  9 17  2  0
  9 19  4  0
  9 20  4  0
  9 21  4  0
  9 22  3  0
  9 26  3  0
 10 12  1  0
 10 15  4  0
 10 20  1  0
 10 24  4  0
 11 12  4  0
 11 23  4  0
 11 24  1  0
 12 22  1  0
 13 16  2  0
 13 25  1  0
 14 15  1  0
 14 18  1  0
 14 19  1  0
 14 25  1  0
 15 20  1  0
 15 21  3  0
 16 18  4  0
 16 27  1  0
 17 26  1  0
 18 19  4  0
 18 26  4  0
 19 22  3  0
 19 26  4  0
 20 22  4  0
 20 26  2  0
 20 27  4  0
 21 25  4  0
 22 27  3  0
 24 26  3  0
 25 27  4  0
M  END
$$$$

 Created by Python create_sdf_string function

 28 31  0  0  0  0  0  0  0  0999 V2000
    0.6060   -8.6430   15.1060 C   0  0  0  0  0  0  0  0  0  0  0  0
    6.2715   -7.8017   17.9393 C   0  0  0  0  0  0  0  0  0  0  0  0
    5.7785   -7.4833   16.7222 C   0  0  0  0  0  0  0  0  0  0  0  0
    2.1446   -4.6723   27.5993 C   0  0  0  0  0  0  0  0  0  0  0  0
    8.3964   -6.9583   17.4278 C   0  0  0  0  0  0  0  0  0  0  0  0
    1.7919   -6.6676   26.2760 C   0  0  0  0  0  0  0  0  0  0  0  0
    7.9814   -6.4755   16.2599 C   0  0  0  0  0  0  0  0  0  0  0  0
    7.6234   -7.6423   18.2452 C   0  0  0  0  0  0  0  0  0  0  0  0
    3.8893   -7.6525   28.8662 C   0  0  0  0  0  0  0  0  0  0  0  0
    3.6182   -8.6008   17.0448 C   0  0  0  0  0  0  0  0  0  0  0  0
    3.9202   -7.1754   15.1855 C   0  0  0  0  0  0  0  0  0  0  0  0
    4.4871   -7.7354   16.3614 C   0  0  0  0  0  0  0  0  0  0  0  0
    0.0346   -8.7584   14.3497 O   0  0  0  0  0  0  0  0  0  0  0  0
    3.1902   -5.2989   28.3151 C   0  0  0  0  0  0  0  0  0  0  0  0
    2.3332   -8.8910   16.6233 C   0  0  0  0  0  0  0  0  0  0  0  0
    4.0543  -11.1042   28.7155 C   0  0  0  0  0  0  0  0  0  0  0  0
    1.5468   -5.3315   26.5759 C   0  0  0  0  0  0  0  0  0  0  0  0
    4.5175  -11.6811   29.5958 O   0  0  0  0  0  0  0  0  0  0  0  0
    3.3421   -6.7121   28.1178 C   0  0  0  0  0  0  0  0  0  0  0  0
    3.8029   -8.9140   28.1439 C   0  0  0  0  0  0  0  0  0  0  0  0
    4.4179   -7.7947   30.1174 S   0  0  0  0  0  0  0  0  0  0  0  0
    3.2271   -8.7148   27.0025 N   0  0  0  0  0  0  0  0  0  0  0  0
    2.6368   -7.5024   14.7738 C   0  0  0  0  0  0  0  0  0  0  0  0
    6.7143   -6.8074   15.8714 C   0  0  0  0  0  0  0  0  0  0  0  0
    4.6005   -9.2445   30.2526 N   0  0  0  0  0  0  0  0  0  0  0  0
    2.7809   -7.3461   26.9375 N   0  0  0  0  0  0  0  0  0  0  0  0
    1.8664   -8.3464   15.5065 C   0  0  0  0  0  0  0  0  0  0  0  0
    4.2029   -9.8918   29.0101 N   0  0  0  0  0  0  0  0  0  0  0  0
  1 13  1  0
  1 27  1  0
  2  3  4  0
  2  8  4  0
  3 12  1  0
  3 24  4  0
  4 14  1  0
  4 17  1  0
  5  7  4  0
  5  8  4  0
  6 17  1  0
  6 26  1  0
  7 24  4  0
  9 19  4  0
  9 20  4  0
  9 21  4  0
 10 12  4  0
 10 15  4  0
 11 12  4  0
 11 23  4  0
 14 19  1  0
 15 27  4  0
 16 18  2  0
 16 28  1  0
 19 26  4  0
 20 22  4  0
 20 28  4  0
 21 25  4  0
 22 26  4  0
 23 27  4  0
 25 28  4  0
M  END
$$$$

 Created by Python create_sdf_string function

 28 51  0  0  0  0  0  0  0  0999 V2000
    0.3956   -8.4197   14.9903 C   0  0  0  0  0  0  0  0  0  0  0  0
    6.1878   -7.3676   18.0483 C   0  0  0  0  0  0  0  0  0  0  0  0
    5.7320   -7.2790   16.5593 I   0  0  0  0  0  0  0  0  0  0  0  0
    2.1186   -4.6665   27.7555 C   0  0  0  0  0  0  0  0  0  0  0  0
    8.4369   -6.8741   17.3206 C   0  0  0  0  0  0  0  0  0  0  0  0
    1.7227   -6.0661   25.9792 C   0  0  0  0  0  0  0  0  0  0  0  0
    8.1718   -6.9943   16.3081 C   0  0  0  0  0  0  0  0  0  0  0  0
    7.6047   -7.6846   18.3728 C   0  0  0  0  0  0  0  0  0  0  0  0
    3.9507   -7.7249   29.0756 C   0  0  0  0  0  0  0  0  0  0  0  0
    3.3877   -8.7463   17.2361 C   0  0  0  0  0  0  0  0  0  0  0  0
    3.9272   -7.3163   15.0300 C   0  0  0  0  0  0  0  0  0  0  0  0
    4.5939   -7.9858   16.3859 C   0  0  0  0  0  0  0  0  0  0  0  0
   -0.0045   -8.2474   14.6083 O   0  0  0  0  0  0  0  0  0  0  0  0
    3.2342   -5.4808   28.1395 C   0  0  0  0  0  0  0  0  0  0  0  0
    2.2839   -8.7846   16.7509 C   0  0  0  0  0  0  0  0  0  0  0  0
    4.1418  -10.8606   28.7269 C   0  0  0  0  0  0  0  0  0  0  0  0
    1.1146   -5.3491   26.4384 C   0  0  0  0  0  0  0  0  0  0  0  0
    4.3617  -11.8058   29.8067 O   0  0  0  0  0  0  0  0  0  0  0  0
    3.6174   -6.5940   27.9783 C   0  0  0  0  0  0  0  0  0  0  0  0
    3.6764   -8.6173   28.1113 C   0  0  0  0  0  0  0  0  0  0  0  0
    4.4223   -7.6360   29.8665 S   0  0  0  0  0  0  0  0  0  0  0  0
    2.7200   -7.6455   14.6735 Se  0  0  0  0  0  0  0  0  0  0  0  0
    6.8478   -6.9964   16.1022 C   0  0  0  0  0  0  0  0  0  0  0  0
    4.9208   -8.7840   30.1597 N   0  0  0  0  0  0  0  0  0  0  0  0
    3.5126   -7.1442   26.7563 N   0  0  0  0  0  0  0  0  0  0  0  0
    2.2074   -8.3010   15.3189 C   0  0  0  0  0  0  0  0  0  0  0  0
    4.0643   -9.8409   28.6939 N   0  0  0  0  0  0  0  0  0  0  0  0
    3.0859   -8.6480   27.2043 He  0  0  0  0  0  0  0  0  0  0  0  0
  1 13  1  0
  1 14  2  0
  2  3  4  0
  2  9  2  0
  2 12  1  0
  2 16  3  0
  3 11  4  0
  3 23  4  0
  4 11  3  0
  4 14  1  0
  4 17  1  0
  4 20  3  0
  5  7  2  0
  5  8  4  0
  5 16  2  0
  5 24  3  0
  6  9  3  0
  6 17  3  0
  6 25  1  0
  7 23  4  0
  9 19  4  0
  9 21  4  0
  9 23  4  0
  9 24  4  0
  9 27  3  0
 10 12  4  0
 10 24  1  0
 11 12  4  0
 11 22  4  0
 11 27  4  0
 12 19  1  0
 13 24  4  0
 13 26  4  0
 14 19  1  0
 15 17  3  0
 15 26  4  0
 16 17  3  0
 16 18  2  0
 16 27  1  0
 17 25  2  0
 18 27  3  0
 19 25  4  0
 20 26  3  0
 20 27  4  0
 21 22  1  0
 21 24  4  0
 21 25  2  0
 21 26  2  0
 22 25  2  0
 22 26  4  0
 24 27  2  0
M  END
$$$$

 Created by Python create_sdf_string function

 28 31  0  0  0  0  0  0  0  0999 V2000
    0.6034   -8.5711   15.1032 C   0  0  0  0  0  0  0  0  0  0  0  0
    6.2403   -7.7569   18.0135 C   0  0  0  0  0  0  0  0  0  0  0  0
    5.8061   -7.5267   16.7026 C   0  0  0  0  0  0  0  0  0  0  0  0
    2.1132   -4.5709   27.7231 C   0  0  0  0  0  0  0  0  0  0  0  0
    8.4408   -7.0348   17.4922 C   0  0  0  0  0  0  0  0  0  0  0  0
    2.1010   -6.3784   26.0603 C   0  0  0  0  0  0  0  0  0  0  0  0
    8.0694   -6.7107   16.2229 C   0  0  0  0  0  0  0  0  0  0  0  0
    7.5335   -7.4916   18.3544 C   0  0  0  0  0  0  0  0  0  0  0  0
    3.9657   -7.5449   28.7999 C   0  0  0  0  0  0  0  0  0  0  0  0
    3.6397   -8.5579   17.0702 C   0  0  0  0  0  0  0  0  0  0  0  0
    4.0294   -7.3187   15.0957 C   0  0  0  0  0  0  0  0  0  0  0  0
    4.5271   -7.7916   16.3266 C   0  0  0  0  0  0  0  0  0  0  0  0
   -0.0389   -8.1830   14.4643 O   0  0  0  0  0  0  0  0  0  0  0  0
    3.2358   -5.1737   28.3446 C   0  0  0  0  0  0  0  0  0  0  0  0
    2.3580   -8.8211   16.6634 C   0  0  0  0  0  0  0  0  0  0  0  0
    4.1507  -10.9783   28.9884 C   0  0  0  0  0  0  0  0  0  0  0  0
    1.3983   -5.2975   26.6683 C   0  0  0  0  0  0  0  0  0  0  0  0
    4.4274  -11.7667   29.6864 O   0  0  0  0  0  0  0  0  0  0  0  0
    3.3900   -6.5849   28.1204 C   0  0  0  0  0  0  0  0  0  0  0  0
    3.7567   -8.8074   28.1319 C   0  0  0  0  0  0  0  0  0  0  0  0
    4.6217   -7.6911   29.9844 C   0  0  0  0  0  0  0  0  0  0  0  0
    3.1254   -8.5421   26.9680 N   0  0  0  0  0  0  0  0  0  0  0  0
    2.7295   -7.5643   14.7024 C   0  0  0  0  0  0  0  0  0  0  0  0
    6.7442   -6.9654   15.8280 C   0  0  0  0  0  0  0  0  0  0  0  0
    4.7744   -9.0966   30.2060 N   0  0  0  0  0  0  0  0  0  0  0  0
    2.8406   -7.1460   26.9574 N   0  0  0  0  0  0  0  0  0  0  0  0
    1.9257   -8.3166   15.5151 C   0  0  0  0  0  0  0  0  0  0  0  0
    4.1729   -9.7490   28.9260 N   0  0  0  0  0  0  0  0  0  0  0  0
  1 13  1  0
  1 27  1  0
  2  3  4  0
  2  8  4  0
  3 12  1  0
  3 24  4  0
  4 14  1  0
  4 17  1  0
  5  7  4  0
  5  8  4  0
  6 17  1  0
  6 26  1  0
  7 24  4  0
  9 19  4  0
  9 20  4  0
  9 21  4  0
 10 12  4  0
 10 15  4  0
 11 12  4  0
 11 23  4  0
 14 19  1  0
 15 27  4  0
 16 18  2  0
 16 28  1  0
 19 26  4  0
 20 22  4  0
 20 28  4  0
 21 25  4  0
 22 26  4  0
 23 27  4  0
 25 28  4  0
M  END
$$$$

 Created by Python create_sdf_string function

 28 41  0  0  0  0  0  0  0  0999 V2000
    0.6704   -8.3735   15.1567 P   0  0  0  0  0  0  0  0  0  0  0  0
    6.1313   -7.7221   18.0601 F   0  0  0  0  0  0  0  0  0  0  0  0
    5.8657   -7.5251   17.0534 C   0  0  0  0  0  0  0  0  0  0  0  0
    1.7200   -3.8800   27.6410 C   0  0  0  0  0  0  0  0  0  0  0  0
    8.4237   -7.0543   17.5196 C   0  0  0  0  0  0  0  0  0  0  0  0
    1.4435   -6.4116   26.1363 C   0  0  0  0  0  0  0  0  0  0  0  0
    8.0809   -6.7151   16.5193 C   0  0  0  0  0  0  0  0  0  0  0  0
    7.3435   -7.4614   18.4572 F   0  0  0  0  0  0  0  0  0  0  0  0
    3.8062   -8.5558   17.0730 C   0  0  0  0  0  0  0  0  0  0  0  0
    3.9479   -7.4969   15.2688 C   0  0  0  0  0  0  0  0  0  0  0  0
   -0.0247   -8.4207   14.4776 O   0  0  0  0  0  0  0  0  0  0  0  0
    2.5921   -8.8271   16.7928 C   0  0  0  0  0  0  0  0  0  0  0  0
    4.0232  -10.8157   28.9918 C   0  0  0  0  0  0  0  0  0  0  0  0
    4.4985  -11.9501   29.6898 F   0  0  0  0  0  0  0  0  0  0  0  0
    3.3898   -6.4732   28.1374 C   0  0  0  0  0  0  0  0  0  0  0  0
    3.6880   -8.9522   28.1887 C   0  0  0  0  0  0  0  0  0  0  0  0
    4.3504   -7.7409   30.2615 C   0  0  0  0  0  0  0  0  0  0  0  0
    2.8255   -8.4206   26.5230 N   0  0  0  0  0  0  0  0  0  0  0  0
    2.9352   -7.5382   14.6565 C   0  0  0  0  0  0  0  0  0  0  0  0
    6.8386   -6.9550   15.7817 I   0  0  0  0  0  0  0  0  0  0  0  0
    4.7028   -9.0254   30.2765 N   0  0  0  0  0  0  0  0  0  0  0  0
    2.4997   -7.5176   27.4474 N   0  0  0  0  0  0  0  0  0  0  0  0
    4.0792   -9.8953   28.9976 N   0  0  0  0  0  0  0  0  0  0  0  0
    4.1471   -7.1606   28.6905 He  0  0  0  0  0  0  0  0  0  0  0  0
    4.4364   -8.2628   16.0343 He  0  0  0  0  0  0  0  0  0  0  0  0
    2.9471   -5.2877   28.2051 He  0  0  0  0  0  0  0  0  0  0  0  0
    0.9706   -5.5334   26.8229 He  0  0  0  0  0  0  0  0  0  0  0  0
    1.3590   -8.5579   15.7262 He  0  0  0  0  0  0  0  0  0  0  0  0
  1  3  1  0
  1 11  1  0
  1 13  2  0
  1 15  1  0
  1 21  3  0
  2  3  4  0
  2  8  4  0
  2 11  2  0
  2 22  4  0
  3  4  2  0
  3 20  4  0
  4  8  3  0
  4  9  2  0
  4 22  2  0
  5  7  4  0
  5  8  4  0
  5 11  3  0
  5 13  3  0
  6 11  1  0
  6 17  3  0
  6 19  3  0
  7 20  4  0
  7 23  4  0
  8 11  1  0
  9 10  4  0
  9 12  4  0
  9 16  2  0
 10 14  2  0
 10 17  2  0
 10 18  2  0
 10 19  4  0
 11 18  3  0
 11 21  3  0
 12 23  3  0
 14 16  2  0
 15 19  1  0
 15 22  4  0
 17 21  4  0
 18 22  1  0
 21 22  4  0
 21 23  4  0
M  END
$$$$

 Created by Python create_sdf_string function

 28 31  0  0  0  0  0  0  0  0999 V2000
    0.5348   -8.5391   15.3139 C   0  0  0  0  0  0  0  0  0  0  0  0
    6.2051   -7.8509   18.0427 C   0  0  0  0  0  0  0  0  0  0  0  0
    5.7878   -7.5794   16.7575 C   0  0  0  0  0  0  0  0  0  0  0  0
    1.9699   -4.5065   27.6249 C   0  0  0  0  0  0  0  0  0  0  0  0
    8.3391   -6.9450   17.5858 C   0  0  0  0  0  0  0  0  0  0  0  0
    1.4710   -6.5475   26.4579 C   0  0  0  0  0  0  0  0  0  0  0  0
    8.0192   -6.6493   16.3590 C   0  0  0  0  0  0  0  0  0  0  0  0
    7.4918   -7.5762   18.3865 C   0  0  0  0  0  0  0  0  0  0  0  0
    3.7791   -7.4988   28.8871 C   0  0  0  0  0  0  0  0  0  0  0  0
    3.6643   -8.6949   17.0485 C   0  0  0  0  0  0  0  0  0  0  0  0
    4.0076   -7.3905   15.1443 C   0  0  0  0  0  0  0  0  0  0  0  0
    4.5339   -7.8895   16.3523 C   0  0  0  0  0  0  0  0  0  0  0  0
   -0.0608   -8.3742   14.4515 O   0  0  0  0  0  0  0  0  0  0  0  0
    2.9855   -5.1498   28.3863 C   0  0  0  0  0  0  0  0  0  0  0  0
    2.3358   -8.9105   16.6913 C   0  0  0  0  0  0  0  0  0  0  0  0
    3.9956  -10.8968   28.9359 C   0  0  0  0  0  0  0  0  0  0  0  0
    1.0493   -5.2624   26.8332 C   0  0  0  0  0  0  0  0  0  0  0  0
    4.3162  -11.7044   29.6011 O   0  0  0  0  0  0  0  0  0  0  0  0
    3.1255   -6.5381   28.1851 C   0  0  0  0  0  0  0  0  0  0  0  0
    3.5973   -8.7338   28.2520 C   0  0  0  0  0  0  0  0  0  0  0  0
    4.4846   -7.7350   30.0471 C   0  0  0  0  0  0  0  0  0  0  0  0
    2.9126   -8.5745   27.1150 N   0  0  0  0  0  0  0  0  0  0  0  0
    2.6939   -7.6181   14.7552 C   0  0  0  0  0  0  0  0  0  0  0  0
    6.7323   -6.9454   15.8921 C   0  0  0  0  0  0  0  0  0  0  0  0
    4.6880   -9.0346   30.2679 N   0  0  0  0  0  0  0  0  0  0  0  0
    2.5178   -7.1798   27.0966 C   0  0  0  0  0  0  0  0  0  0  0  0
    1.8767   -8.3547   15.5983 C   0  0  0  0  0  0  0  0  0  0  0  0
    4.1184   -9.7130   29.0242 N   0  0  0  0  0  0  0  0  0  0  0  0
  1 13  1  0
  1 27  1  0
  2  3  4  0
  2  8  4  0
  3 12  1  0
  3 24  4  0
  4 14  1  0
  4 17  1  0
  5  7  4  0
  5  8  4  0
  6 17  1  0
  6 26  1  0
  7 24  4  0
  9 19  4  0
  9 20  4  0
  9 21  4  0
 10 12  4  0
 10 15  4  0
 11 12  4  0
 11 23  4  0
 14 19  1  0
 15 27  4  0
 16 18  1  0
 16 28  1  0
 19 26  4  0
 20 22  4  0
 20 28  4  0
 21 25  4  0
 22 26  4  0
 23 27  4  0
 25 28  4  0
M  END
$$$$

 Created by Python create_sdf_string function

 28 40  0  0  0  0  0  0  0  0999 V2000
    6.3585   -7.5529   18.1823 C   0  0  0  0  0  0  0  0  0  0  0  0
    5.6576   -7.5936   16.7838 C   0  0  0  0  0  0  0  0  0  0  0  0
    1.5623   -4.3410   27.7272 C   0  0  0  0  0  0  0  0  0  0  0  0
    8.6173   -7.0084   17.6274 C   0  0  0  0  0  0  0  0  0  0  0  0
    1.8273   -6.3907   26.5532 C   0  0  0  0  0  0  0  0  0  0  0  0
    7.9343   -6.3514   16.6264 C   0  0  0  0  0  0  0  0  0  0  0  0
    7.4128   -7.6304   18.4636 C   0  0  0  0  0  0  0  0  0  0  0  0
    3.5440   -7.4603   28.8866 C   0  0  0  0  0  0  0  0  0  0  0  0
    3.7943   -8.5957   17.3023 C   0  0  0  0  0  0  0  0  0  0  0  0
    4.7291   -8.0386   16.2853 N   0  0  0  0  0  0  0  0  0  0  0  0
   -0.3058   -8.9824   14.2116 C   0  0  0  0  0  0  0  0  0  0  0  0
    3.4100   -4.6946   28.4615 O   0  0  0  0  0  0  0  0  0  0  0  0
    2.6336   -8.9020   16.6621 C   0  0  0  0  0  0  0  0  0  0  0  0
    1.1995   -5.0371   27.2462 C   0  0  0  0  0  0  0  0  0  0  0  0
    4.6997  -11.8951   29.9883 O   0  0  0  0  0  0  0  0  0  0  0  0
    2.7946   -6.8402   28.1592 C   0  0  0  0  0  0  0  0  0  0  0  0
    3.9945   -9.1015   28.3077 O   0  0  0  0  0  0  0  0  0  0  0  0
    4.0098   -7.5865   29.8454 C   0  0  0  0  0  0  0  0  0  0  0  0
    2.8483   -8.3974   26.9230 N   0  0  0  0  0  0  0  0  0  0  0  0
    6.7352   -6.8907   15.8264 S   0  0  0  0  0  0  0  0  0  0  0  0
    4.7136   -9.5262   30.5295 N   0  0  0  0  0  0  0  0  0  0  0  0
    2.6269   -7.2295   27.0789 C   0  0  0  0  0  0  0  0  0  0  0  0
    1.9866   -8.3971   15.4925 C   0  0  0  0  0  0  0  0  0  0  0  0
    0.4685   -8.5304   15.2589 He  0  0  0  0  0  0  0  0  0  0  0  0
    3.7930   -6.9045   15.1558 He  0  0  0  0  0  0  0  0  0  0  0  0
    4.0021  -10.8395   29.3858 He  0  0  0  0  0  0  0  0  0  0  0  0
    2.8609   -7.8541   14.7017 He  0  0  0  0  0  0  0  0  0  0  0  0
    4.3908   -9.6847   28.7593 He  0  0  0  0  0  0  0  0  0  0  0  0
  1  2  4  0
  1  7  4  0
  1  9  3  0
  1 13  1  0
  2 10  1  0
  2 20  4  0
  3 12  1  0
  3 14  1  0
  3 19  3  0
  4  6  4  0
  4  7  1  0
  4 11  2  0
  5 14  1  0
  5 19  2  0
  6 20  4  0
  7  9  1  0
  7 10  2  0
  8 10  2  0
  8 16  4  0
  8 17  4  0
  8 18  4  0
  8 20  1  0
  9 10  4  0
  9 13  4  0
  9 20  2  0
 10 11  2  0
 10 19  4  0
 11 14  3  0
 12 16  1  0
 12 22  4  0
 13 18  4  0
 13 19  4  0
 13 23  4  0
 15 20  2  0
 16 20  1  0
 16 22  4  0
 17 19  4  0
 18 21  4  0
 19 22  4  0
 19 23  2  0
M  END
$$$$

 Created by Python create_sdf_string function

 28 31  0  0  0  0  0  0  0  0999 V2000
    0.5665   -8.6715   15.2372 O   0  0  0  0  0  0  0  0  0  0  0  0
    6.2689   -7.8805   18.0376 C   0  0  0  0  0  0  0  0  0  0  0  0
    5.8096   -7.4645   16.8190 C   0  0  0  0  0  0  0  0  0  0  0  0
    2.0017   -4.4532   27.8514 C   0  0  0  0  0  0  0  0  0  0  0  0
    8.3783   -6.8901   17.6259 C   0  0  0  0  0  0  0  0  0  0  0  0
    1.6642   -6.3661   26.3988 C   0  0  0  0  0  0  0  0  0  0  0  0
    8.0089   -6.4882   16.4026 C   0  0  0  0  0  0  0  0  0  0  0  0
    7.5401   -7.5997   18.3940 C   0  0  0  0  0  0  0  0  0  0  0  0
    3.7133   -7.5355   29.0050 C   0  0  0  0  0  0  0  0  0  0  0  0
    3.7127   -8.6598   17.0978 C   0  0  0  0  0  0  0  0  0  0  0  0
    4.0275   -7.3000   15.2065 C   0  0  0  0  0  0  0  0  0  0  0  0
    4.5570   -7.7963   16.3979 C   0  0  0  0  0  0  0  0  0  0  0  0
   -0.0311   -8.8832   14.3258 C   0  0  0  0  0  0  0  0  0  0  0  0
    3.0330   -5.1783   28.5074 C   0  0  0  0  0  0  0  0  0  0  0  0
    2.4216   -8.9711   16.6990 C   0  0  0  0  0  0  0  0  0  0  0  0
    4.1978  -10.7804   29.3116 C   0  0  0  0  0  0  0  0  0  0  0  0
    1.1061   -5.1853   26.9663 C   0  0  0  0  0  0  0  0  0  0  0  0
    4.6625  -11.7410   29.9543 O   0  0  0  0  0  0  0  0  0  0  0  0
    3.1213   -6.5304   28.2939 C   0  0  0  0  0  0  0  0  0  0  0  0
    3.5903   -8.8247   28.2256 C   0  0  0  0  0  0  0  0  0  0  0  0
    4.3036   -7.8104   30.1933 C   0  0  0  0  0  0  0  0  0  0  0  0
    2.9476   -8.4425   27.0521 N   0  0  0  0  0  0  0  0  0  0  0  0
    2.7256   -7.5603   14.7978 C   0  0  0  0  0  0  0  0  0  0  0  0
    6.6952   -6.7028   15.9922 C   0  0  0  0  0  0  0  0  0  0  0  0
    4.6146   -9.2315   30.3245 N   0  0  0  0  0  0  0  0  0  0  0  0
    2.5554   -7.0992   27.1411 C   0  0  0  0  0  0  0  0  0  0  0  0
    1.9305   -8.4038   15.5808 C   0  0  0  0  0  0  0  0  0  0  0  0
    4.0144   -9.8871   28.8484 C   0  0  0  0  0  0  0  0  0  0  0  0
  1 13  2  0
  1 27  1  0
  2  3  4  0
  2  8  4  0
  3 12  1  0
  3 24  4  0
  4 14  1  0
  4 17  1  0
  5  7  4  0
  5  8  4  0
  6 17  1  0
  6 26  1  0
  7 24  4  0
  9 19  4  0
  9 20  4  0
  9 21  4  0
 10 12  4  0
 10 15  4  0
 11 12  4  0
 11 23  4  0
 14 19  1  0
 15 27  4  0
 16 18  2  0
 16 28  4  0
 19 26  4  0
 20 22  4  0
 20 28  4  0
 21 25  4  0
 22 26  4  0
 23 27  4  0
 25 28  4  0
M  END
$$$$

 Created by Python create_sdf_string function

 28 55  0  0  0  0  0  0  0  0999 V2000
    0.5949   -8.7802   15.1427 O   0  0  0  0  0  0  0  0  0  0  0  0
    6.4223   -7.6959   18.0454 C   0  0  0  0  0  0  0  0  0  0  0  0
    5.8894   -7.4803   16.7796 C   0  0  0  0  0  0  0  0  0  0  0  0
    1.4278   -4.5977   27.7644 C   0  0  0  0  0  0  0  0  0  0  0  0
    8.7588   -6.8875   17.6696 C   0  0  0  0  0  0  0  0  0  0  0  0
    1.7878   -6.4889   26.6665 C   0  0  0  0  0  0  0  0  0  0  0  0
    7.8976   -7.2476   16.0706 C   0  0  0  0  0  0  0  0  0  0  0  0
    7.5546   -7.6765   18.3851 C   0  0  0  0  0  0  0  0  0  0  0  0
    3.7916   -8.5987   16.9372 C   0  0  0  0  0  0  0  0  0  0  0  0
    4.0934   -7.4895   15.0600 C   0  0  0  0  0  0  0  0  0  0  0  0
    4.1187   -7.6404   16.0648 C   0  0  0  0  0  0  0  0  0  0  0  0
    0.0898   -8.7538   14.4615 C   0  0  0  0  0  0  0  0  0  0  0  0
    2.5092   -8.8206   16.6428 C   0  0  0  0  0  0  0  0  0  0  0  0
    4.1275  -10.5933   29.1822 P   0  0  0  0  0  0  0  0  0  0  0  0
    1.2012   -4.9862   26.8675 C   0  0  0  0  0  0  0  0  0  0  0  0
    4.1144  -11.6621   29.6937 O   0  0  0  0  0  0  0  0  0  0  0  0
    2.7490   -6.9155   28.2640 C   0  0  0  0  0  0  0  0  0  0  0  0
    3.2091   -8.7640   28.2795 C   0  0  0  0  0  0  0  0  0  0  0  0
    4.3379   -7.6907   30.3011 C   0  0  0  0  0  0  0  0  0  0  0  0
    2.9681   -8.2331   27.0630 N   0  0  0  0  0  0  0  0  0  0  0  0
    2.9105   -7.5562   14.7520 C   0  0  0  0  0  0  0  0  0  0  0  0
    6.8806   -6.6056   15.9644 C   0  0  0  0  0  0  0  0  0  0  0  0
    4.7344   -9.0472   30.3126 N   0  0  0  0  0  0  0  0  0  0  0  0
    2.4780   -6.9166   27.4050 C   0  0  0  0  0  0  0  0  0  0  0  0
    1.8952   -8.2790   15.6866 C   0  0  0  0  0  0  0  0  0  0  0  0
    4.1917  -10.1689   28.8658 C   0  0  0  0  0  0  0  0  0  0  0  0
    3.2834   -7.4460   28.7624 He  0  0  0  0  0  0  0  0  0  0  0  0
    3.0565   -5.3954   28.5902 He  0  0  0  0  0  0  0  0  0  0  0  0
  1 12  2  0
  1 21  1  0
  1 24  3  0
  1 25  1  0
  2  3  4  0
  2  8  4  0
  2  9  2  0
  2 10  4  0
  2 15  1  0
  2 22  2  0
  3 11  1  0
  3 22  4  0
  4 15  1  0
  4 18  3  0
  4 21  1  0
  4 23  1  0
  5  7  4  0
  5  8  4  0
  5 14  1  0
  5 17  2  0
  6 12  4  0
  6 15  1  0
  6 21  3  0
  6 22  2  0
  6 24  1  0
  7 11  3  0
  7 22  2  0
  7 24  4  0
  7 26  1  0
  9 11  1  0
  9 20  2  0
  9 22  4  0
 10 11  4  0
 10 20  2  0
 12 19  4  0
 13 14  3  0
 13 17  1  0
 13 19  4  0
 13 20  2  0
 13 25  4  0
 14 16  2  0
 14 20  1  0
 15 19  3  0
 17 22  2  0
 17 24  4  0
 18 20  4  0
 18 24  4  0
 18 25  1  0
 18 26  4  0
 19 23  4  0
 19 26  4  0
 20 21  2  0
 20 24  4  0
 21 25  4  0
 23 26  4  0
M  END
$$$$

 Created by Python create_sdf_string function

 28 31  0  0  0  0  0  0  0  0999 V2000
    0.6494   -8.7050   15.2688 O   0  0  0  0  0  0  0  0  0  0  0  0
    6.2850   -7.7749   17.9976 C   0  0  0  0  0  0  0  0  0  0  0  0
    5.8605   -7.5255   16.7039 C   0  0  0  0  0  0  0  0  0  0  0  0
    1.6986   -4.5205   27.9761 C   0  0  0  0  0  0  0  0  0  0  0  0
    8.4976   -7.1070   17.4706 C   0  0  0  0  0  0  0  0  0  0  0  0
    1.6077   -6.3986   26.4165 C   0  0  0  0  0  0  0  0  0  0  0  0
    8.1104   -6.6732   16.2514 C   0  0  0  0  0  0  0  0  0  0  0  0
    7.6075   -7.6337   18.3139 C   0  0  0  0  0  0  0  0  0  0  0  0
    3.5885   -7.5475   29.0582 N   0  0  0  0  0  0  0  0  0  0  0  0
    3.7270   -8.5816   17.0722 C   0  0  0  0  0  0  0  0  0  0  0  0
    4.0227   -7.2769   15.1220 C   0  0  0  0  0  0  0  0  0  0  0  0
    4.5732   -7.7925   16.3250 C   0  0  0  0  0  0  0  0  0  0  0  0
    0.0551   -8.6517   14.2679 C   0  0  0  0  0  0  0  0  0  0  0  0
    2.6562   -5.2292   28.7285 C   0  0  0  0  0  0  0  0  0  0  0  0
    2.4369   -8.8883   16.6896 C   0  0  0  0  0  0  0  0  0  0  0  0
    4.1722  -10.8234   29.1680 C   0  0  0  0  0  0  0  0  0  0  0  0
    1.1833   -5.0567   26.7798 C   0  0  0  0  0  0  0  0  0  0  0  0
    4.3364  -11.7209   29.6152 O   0  0  0  0  0  0  0  0  0  0  0  0
    2.9009   -6.5519   28.3958 C   0  0  0  0  0  0  0  0  0  0  0  0
    3.4551   -8.7641   28.3018 C   0  0  0  0  0  0  0  0  0  0  0  0
    4.2533   -7.7744   30.2306 C   0  0  0  0  0  0  0  0  0  0  0  0
    2.7801   -8.4227   27.1482 N   0  0  0  0  0  0  0  0  0  0  0  0
    2.7512   -7.6183   14.7270 C   0  0  0  0  0  0  0  0  0  0  0  0
    6.8047   -6.9383   15.8224 C   0  0  0  0  0  0  0  0  0  0  0  0
    4.6127   -9.1291   30.3501 N   0  0  0  0  0  0  0  0  0  0  0  0
    2.3920   -7.1037   27.2350 C   0  0  0  0  0  0  0  0  0  0  0  0
    1.9589   -8.4044   15.5401 C   0  0  0  0  0  0  0  0  0  0  0  0
    3.9403   -9.7925   28.9924 C   0  0  0  0  0  0  0  0  0  0  0  0
  1 13  1  0
  1 27  1  0
  2  3  4  0
  2  8  4  0
  3 12  1  0
  3 24  4  0
  4 14  1  0
  4 17  1  0
  5  7  4  0
  5  8  4  0
  6 17  1  0
  6 26  1  0
  7 24  4  0
  9 19  4  0
  9 20  4  0
  9 21  4  0
 10 12  4  0
 10 15  4  0
 11 12  4  0
 11 23  4  0
 14 19  1  0
 15 27  4  0
 16 18  2  0
 16 28  4  0
 19 26  4  0
 20 22  4  0
 20 28  4  0
 21 25  4  0
 22 26  4  0
 23 27  4  0
 25 28  4  0
M  END
$$$$

 Created by Python create_sdf_string function

 28 45  0  0  0  0  0  0  0  0999 V2000
    0.6269   -8.6455   15.1442 O   0  0  0  0  0  0  0  0  0  0  0  0
    6.0982   -7.8458   17.8372 C   0  0  0  0  0  0  0  0  0  0  0  0
    5.8691   -7.4180   16.6276 C   0  0  0  0  0  0  0  0  0  0  0  0
    1.5788   -4.5535   27.8855 C   0  0  0  0  0  0  0  0  0  0  0  0
    8.4728   -7.1784   17.4663 C   0  0  0  0  0  0  0  0  0  0  0  0
    1.3232   -6.4210   26.7197 C   0  0  0  0  0  0  0  0  0  0  0  0
    7.7818   -6.6298   16.2841 C   0  0  0  0  0  0  0  0  0  0  0  0
    7.6937   -7.3890   18.2935 C   0  0  0  0  0  0  0  0  0  0  0  0
    3.7061   -7.4613   28.8960 N   0  0  0  0  0  0  0  0  0  0  0  0
    3.7711   -8.7411   17.4181 C   0  0  0  0  0  0  0  0  0  0  0  0
    4.3458   -7.0040   15.0825 C   0  0  0  0  0  0  0  0  0  0  0  0
    4.5389   -7.8759   16.3128 C   0  0  0  0  0  0  0  0  0  0  0  0
    0.2540   -8.8957   14.0524 C   0  0  0  0  0  0  0  0  0  0  0  0
    2.8150   -5.4887   29.0150 C   0  0  0  0  0  0  0  0  0  0  0  0
    2.5092   -8.8207   16.8822 C   0  0  0  0  0  0  0  0  0  0  0  0
    4.5448  -10.8395   28.9835 C   0  0  0  0  0  0  0  0  0  0  0  0
    0.7289   -5.0783   26.5946 C   0  0  0  0  0  0  0  0  0  0  0  0
    4.1988  -11.4637   29.6421 O   0  0  0  0  0  0  0  0  0  0  0  0
    3.1601   -6.8419   28.5131 C   0  0  0  0  0  0  0  0  0  0  0  0
    3.1206   -8.8584   28.1351 C   0  0  0  0  0  0  0  0  0  0  0  0
    2.4795   -8.3260   26.9340 S   0  0  0  0  0  0  0  0  0  0  0  0
    6.8682   -6.9282   15.7675 C   0  0  0  0  0  0  0  0  0  0  0  0
    4.7287   -9.1386   30.6108 S   0  0  0  0  0  0  0  0  0  0  0  0
    2.3710   -7.2478   27.3028 C   0  0  0  0  0  0  0  0  0  0  0  0
    2.0683   -8.0881   15.1963 C   0  0  0  0  0  0  0  0  0  0  0  0
    4.3304   -7.6363   30.3303 He  0  0  0  0  0  0  0  0  0  0  0  0
    2.6604   -7.6543   14.8195 He  0  0  0  0  0  0  0  0  0  0  0  0
    3.8785   -9.7992   28.9612 He  0  0  0  0  0  0  0  0  0  0  0  0
  1  6  1  0
  1 13  1  0
  1 20  2  0
  1 23  2  0
  1 25  1  0
  2  3  4  0
  2  5  2  0
  2  8  4  0
  2 17  2  0
  3  7  4  0
  3 11  1  0
  3 12  1  0
  3 14  4  0
  3 22  4  0
  4 14  1  0
  4 17  1  0
  5  6  4  0
  5  7  4  0
  5  8  4  0
  6 13  4  0
  6 17  1  0
  6 18  4  0
  6 24  1  0
  7 13  3  0
  7 14  1  0
  7 22  4  0
  8 16  2  0
  8 24  4  0
  9 19  1  0
  9 20  4  0
 10 15  4  0
 10 18  1  0
 11 12  4  0
 11 25  1  0
 13 20  2  0
 14 17  1  0
 14 19  1  0
 15 25  4  0
 16 18  2  0
 17 19  4  0
 17 25  3  0
 20 21  4  0
 20 25  3  0
 21 23  4  0
 21 24  4  0
M  END
$$$$

 Created by Python create_sdf_string function

 28 31  0  0  0  0  0  0  0  0999 V2000
    0.6795   -8.5920   15.2314 O   0  0  0  0  0  0  0  0  0  0  0  0
    6.3307   -7.8289   17.9698 C   0  0  0  0  0  0  0  0  0  0  0  0
    5.8824   -7.4829   16.7001 C   0  0  0  0  0  0  0  0  0  0  0  0
    1.7006   -4.4995   28.0156 C   0  0  0  0  0  0  0  0  0  0  0  0
    8.4801   -6.9465   17.4589 C   0  0  0  0  0  0  0  0  0  0  0  0
    1.1934   -6.4350   26.5761 C   0  0  0  0  0  0  0  0  0  0  0  0
    8.1203   -6.6292   16.2153 C   0  0  0  0  0  0  0  0  0  0  0  0
    7.6668   -7.5843   18.3050 C   0  0  0  0  0  0  0  0  0  0  0  0
    3.5268   -7.6186   28.9909 N   0  0  0  0  0  0  0  0  0  0  0  0
    3.7799   -8.5621   17.1009 C   0  0  0  0  0  0  0  0  0  0  0  0
    4.0916   -7.2348   15.1449 C   0  0  0  0  0  0  0  0  0  0  0  0
    4.6043   -7.7561   16.3234 C   0  0  0  0  0  0  0  0  0  0  0  0
    0.3375   -8.7784   13.9501 C   0  0  0  0  0  0  0  0  0  0  0  0
    2.6347   -5.3090   28.7917 C   0  0  0  0  0  0  0  0  0  0  0  0
    2.4530   -8.8494   16.6970 C   0  0  0  0  0  0  0  0  0  0  0  0
    4.2554  -10.8423   29.2388 C   0  0  0  0  0  0  0  0  0  0  0  0
    0.9864   -5.0639   26.9280 C   0  0  0  0  0  0  0  0  0  0  0  0
    4.3962  -11.7435   29.4982 O   0  0  0  0  0  0  0  0  0  0  0  0
    2.8353   -6.6224   28.3813 C   0  0  0  0  0  0  0  0  0  0  0  0
    3.4448   -8.8177   28.3590 C   0  0  0  0  0  0  0  0  0  0  0  0
    4.2571   -7.7086   30.1523 C   0  0  0  0  0  0  0  0  0  0  0  0
    2.5781   -8.5912   27.0912 S   0  0  0  0  0  0  0  0  0  0  0  0
    2.7750   -7.5514   14.7399 C   0  0  0  0  0  0  0  0  0  0  0  0
    6.7995   -6.8545   15.8033 C   0  0  0  0  0  0  0  0  0  0  0  0
    4.6789   -9.0305   30.4665 C   0  0  0  0  0  0  0  0  0  0  0  0
    2.1848   -7.1413   27.2670 C   0  0  0  0  0  0  0  0  0  0  0  0
    2.0076   -8.3291   15.5542 C   0  0  0  0  0  0  0  0  0  0  0  0
    4.0816   -9.7901   29.0533 N   0  0  0  0  0  0  0  0  0  0  0  0
  1 13  1  0
  1 27  1  0
  2  3  4  0
  2  8  4  0
  3 12  1  0
  3 24  4  0
  4 14  1  0
  4 17  1  0
  5  7  4  0
  5  8  4  0
  6 17  1  0
  6 26  1  0
  7 24  4  0
  9 19  4  0
  9 20  4  0
  9 21  4  0
 10 12  4  0
 10 15  4  0
 11 12  4  0
 11 23  4  0
 14 19  1  0
 15 27  4  0
 16 18  2  0
 16 28  4  0
 19 26  4  0
 20 22  4  0
 20 28  4  0
 21 25  4  0
 22 26  4  0
 23 27  4  0
 25 28  4  0
M  END
$$$$

 Created by Python create_sdf_string function

 28 40  0  0  0  0  0  0  0  0999 V2000
    6.6472   -7.5154   17.6146 C   0  0  0  0  0  0  0  0  0  0  0  0
    6.0494   -7.4690   16.7047 C   0  0  0  0  0  0  0  0  0  0  0  0
    1.8137   -4.3583   28.0831 C   0  0  0  0  0  0  0  0  0  0  0  0
    8.6749   -6.9746   17.5151 C   0  0  0  0  0  0  0  0  0  0  0  0
    8.1314   -6.4301   16.3096 C   0  0  0  0  0  0  0  0  0  0  0  0
    7.6610   -7.5667   17.9753 C   0  0  0  0  0  0  0  0  0  0  0  0
    3.0693   -7.6210   29.0377 N   0  0  0  0  0  0  0  0  0  0  0  0
    3.8968   -8.7545   17.2640 C   0  0  0  0  0  0  0  0  0  0  0  0
    4.1043   -7.1977   15.3274 C   0  0  0  0  0  0  0  0  0  0  0  0
    4.5560   -7.6806   16.3580 C   0  0  0  0  0  0  0  0  0  0  0  0
    0.4297   -8.8736   13.9749 C   0  0  0  0  0  0  0  0  0  0  0  0
    2.8316   -5.2281   28.9046 C   0  0  0  0  0  0  0  0  0  0  0  0
    2.3424   -8.7562   16.7148 C   0  0  0  0  0  0  0  0  0  0  0  0
    4.8061  -10.7852   29.2884 C   0  0  0  0  0  0  0  0  0  0  0  0
    0.6182   -5.3383   26.7760 C   0  0  0  0  0  0  0  0  0  0  0  0
    4.5137  -11.4285   29.5842 O   0  0  0  0  0  0  0  0  0  0  0  0
    2.9242   -6.4790   28.1402 C   0  0  0  0  0  0  0  0  0  0  0  0
    3.6055   -8.9393   28.3431 C   0  0  0  0  0  0  0  0  0  0  0  0
    4.1826   -7.9017   30.2530 C   0  0  0  0  0  0  0  0  0  0  0  0
    2.5476   -8.7669   27.2411 S   0  0  0  0  0  0  0  0  0  0  0  0
    2.7775   -7.4989   14.6241 C   0  0  0  0  0  0  0  0  0  0  0  0
    6.7582   -6.9523   15.8501 C   0  0  0  0  0  0  0  0  0  0  0  0
    4.8272   -9.1474   30.8936 C   0  0  0  0  0  0  0  0  0  0  0  0
    2.1065   -7.3467   27.3300 C   0  0  0  0  0  0  0  0  0  0  0  0
    0.7157   -8.3668   15.1322 He  0  0  0  0  0  0  0  0  0  0  0  0
    0.9061   -6.4843   26.4057 He  0  0  0  0  0  0  0  0  0  0  0  0
    1.9730   -8.4987   15.7846 He  0  0  0  0  0  0  0  0  0  0  0  0
    4.0633   -9.8314   29.2318 He  0  0  0  0  0  0  0  0  0  0  0  0
  1  2  4  0
  1  5  4  0
  1  6  1  0
  2 10  1  0
  2 22  4  0
  3  7  3  0
  3 12  1  0
  3 14  3  0
  3 15  1  0
  3 22  3  0
  3 23  2  0
  4  5  4  0
  4  6  4  0
  4  9  1  0
  4 17  1  0
  5 10  2  0
  5 11  1  0
  5 22  4  0
  7 14  2  0
  7 18  4  0
  7 19  2  0
  8 10  4  0
  9 10  4  0
  9 21  4  0
 10 14  3  0
 10 16  2  0
 11 13  3  0
 12 13  3  0
 12 14  1  0
 12 17  1  0
 12 18  3  0
 13 19  1  0
 13 22  4  0
 14 16  2  0
 14 21  1  0
 18 19  2  0
 18 20  4  0
 19 23  4  0
 20 21  3  0
 20 24  4  0
M  END
$$$$

 Created by Python create_sdf_string function

 28 31  0  0  0  0  0  0  0  0999 V2000
    0.6684   -8.5300   15.3297 O   0  0  0  0  0  0  0  0  0  0  0  0
    6.4720   -7.8585   17.8918 C   0  0  0  0  0  0  0  0  0  0  0  0
    5.9511   -7.4492   16.6866 C   0  0  0  0  0  0  0  0  0  0  0  0
    1.7362   -4.5360   27.9122 C   0  0  0  0  0  0  0  0  0  0  0  0
    8.5775   -6.8607   17.3396 C   0  0  0  0  0  0  0  0  0  0  0  0
    1.1204   -6.5174   26.6001 C   0  0  0  0  0  0  0  0  0  0  0  0
    8.1256   -6.4752   16.1385 C   0  0  0  0  0  0  0  0  0  0  0  0
    7.8169   -7.5396   18.2045 C   0  0  0  0  0  0  0  0  0  0  0  0
    3.4460   -7.6936   29.0691 N   0  0  0  0  0  0  0  0  0  0  0  0
    3.8171   -8.5431   17.0888 C   0  0  0  0  0  0  0  0  0  0  0  0
    4.1174   -7.2128   15.1605 C   0  0  0  0  0  0  0  0  0  0  0  0
    4.6647   -7.7304   16.3411 C   0  0  0  0  0  0  0  0  0  0  0  0
    0.3422   -8.8062   13.9628 C   0  0  0  0  0  0  0  0  0  0  0  0
    2.6609   -5.3600   28.6941 C   0  0  0  0  0  0  0  0  0  0  0  0
    2.5195   -8.8445   16.7349 C   0  0  0  0  0  0  0  0  0  0  0  0
    4.5133  -10.2871   29.7519 C   0  0  0  0  0  0  0  0  0  0  0  0
    0.8552   -5.2423   26.9982 C   0  0  0  0  0  0  0  0  0  0  0  0
    4.8159  -11.4865   29.9145 O   0  0  0  0  0  0  0  0  0  0  0  0
    2.7355   -6.6887   28.4004 C   0  0  0  0  0  0  0  0  0  0  0  0
    3.3726   -8.8842   28.3873 C   0  0  0  0  0  0  0  0  0  0  0  0
    4.1843   -7.8160   30.2790 C   0  0  0  0  0  0  0  0  0  0  0  0
    2.4481   -8.7396   27.0874 S   0  0  0  0  0  0  0  0  0  0  0  0
    2.7907   -7.4915   14.7983 C   0  0  0  0  0  0  0  0  0  0  0  0
    6.8037   -6.7084   15.8102 C   0  0  0  0  0  0  0  0  0  0  0  0
    4.7249   -9.1102   30.6554 C   0  0  0  0  0  0  0  0  0  0  0  0
    2.0796   -7.2248   27.3325 C   0  0  0  0  0  0  0  0  0  0  0  0
    2.0184   -8.2873   15.6176 C   0  0  0  0  0  0  0  0  0  0  0  0
    3.9144  -10.0194   28.6979 N   0  0  0  0  0  0  0  0  0  0  0  0
  1 13  1  0
  1 27  1  0
  2  3  4  0
  2  8  4  0
  3 12  1  0
  3 24  4  0
  4 14  1  0
  4 17  1  0
  5  7  4  0
  5  8  4  0
  6 17  1  0
  6 26  1  0
  7 24  4  0
  9 19  4  0
  9 20  4  0
  9 21  4  0
 10 12  4  0
 10 15  4  0
 11 12  4  0
 11 23  4  0
 14 19  1  0
 15 27  4  0
 16 18  2  0
 16 25  4  0
 16 28  4  0
 19 26  4  0
 20 22  4  0
 20 28  4  0
 21 25  4  0
 22 26  4  0
 23 27  4  0
M  END
$$$$

 Created by Python create_sdf_string function

 28 40  0  0  0  0  0  0  0  0999 V2000
    0.7066   -8.5984   15.2051 O   0  0  0  0  0  0  0  0  0  0  0  0
    6.4443   -7.5869   17.7563 C   0  0  0  0  0  0  0  0  0  0  0  0
    5.9024   -7.5448   16.6310 C   0  0  0  0  0  0  0  0  0  0  0  0
    1.2492   -4.4320   28.2221 C   0  0  0  0  0  0  0  0  0  0  0  0
    8.4052   -6.8305   17.5314 C   0  0  0  0  0  0  0  0  0  0  0  0
    1.4078   -6.5305   26.6347 C   0  0  0  0  0  0  0  0  0  0  0  0
    8.2036   -6.8203   16.3760 C   0  0  0  0  0  0  0  0  0  0  0  0
    7.8088   -7.6823   18.1479 C   0  0  0  0  0  0  0  0  0  0  0  0
    3.5094   -7.9865   29.1819 F   0  0  0  0  0  0  0  0  0  0  0  0
    3.8873   -8.2841   17.1527 C   0  0  0  0  0  0  0  0  0  0  0  0
    4.2473   -7.0862   15.0983 C   0  0  0  0  0  0  0  0  0  0  0  0
    4.5643   -8.0010   16.4469 C   0  0  0  0  0  0  0  0  0  0  0  0
    0.0564   -9.0321   13.9908 C   0  0  0  0  0  0  0  0  0  0  0  0
    2.4292   -8.8850   16.4790 C   0  0  0  0  0  0  0  0  0  0  0  0
    4.8061   -9.7646   29.4122 Se  0  0  0  0  0  0  0  0  0  0  0  0
    0.5819   -5.3182   26.7442 C   0  0  0  0  0  0  0  0  0  0  0  0
    4.6141  -11.5221   29.9528 O   0  0  0  0  0  0  0  0  0  0  0  0
    3.2696   -8.8950   28.3609 C   0  0  0  0  0  0  0  0  0  0  0  0
    4.3206   -8.1439   30.0354 C   0  0  0  0  0  0  0  0  0  0  0  0
    3.0616   -7.3478   14.7929 C   0  0  0  0  0  0  0  0  0  0  0  0
    6.8943   -6.7483   15.7847 C   0  0  0  0  0  0  0  0  0  0  0  0
    4.4686   -9.1269   30.8070 C   0  0  0  0  0  0  0  0  0  0  0  0
    2.3125   -6.9608   27.3785 C   0  0  0  0  0  0  0  0  0  0  0  0
    2.2695   -8.5162   15.3637 C   0  0  0  0  0  0  0  0  0  0  0  0
    3.8888  -10.3607   28.5700 N   0  0  0  0  0  0  0  0  0  0  0  0
    2.9603   -5.2585   28.6036 He  0  0  0  0  0  0  0  0  0  0  0  0
    2.7152   -6.7952   28.1213 He  0  0  0  0  0  0  0  0  0  0  0  0
    2.5040   -8.6675   27.1558 He  0  0  0  0  0  0  0  0  0  0  0  0
  1 24  1  0
  2  3  4  0
  2  8  4  0
  3 20  1  0
  4 16  1  0
  5  7  3  0
  5  8  4  0
  6 16  1  0
  6 21  2  0
  6 23  1  0
  7 21  4  0
  9 18  4  0
  9 19  4  0
  9 23  1  0
 10 12  4  0
 10 13  1  0
 10 14  4  0
 10 23  2  0
 10 24  1  0
 11 12  4  0
 11 15  3  0
 11 20  4  0
 12 13  2  0
 12 15  1  0
 13 20  3  0
 14 15  4  0
 14 24  4  0
 15 17  2  0
 15 20  3  0
 15 21  2  0
 15 22  4  0
 15 25  4  0
 17 22  3  0
 17 24  3  0
 18 20  1  0
 18 25  4  0
 19 22  4  0
 20 22  4  0
 20 24  4  0
 21 22  4  0
M  END
$$$$

 Created by Python create_sdf_string function

 28 31  0  0  0  0  0  0  0  0999 V2000
    0.7947   -8.6150   15.1486 O   0  0  0  0  0  0  0  0  0  0  0  0
    6.4175   -7.8395   17.9303 C   0  0  0  0  0  0  0  0  0  0  0  0
    5.9751   -7.4552   16.6769 C   0  0  0  0  0  0  0  0  0  0  0  0
    1.5124   -4.6466   28.1418 C   0  0  0  0  0  0  0  0  0  0  0  0
    8.5782   -6.9361   17.4547 C   0  0  0  0  0  0  0  0  0  0  0  0
    1.2475   -6.4597   26.5320 C   0  0  0  0  0  0  0  0  0  0  0  0
    8.2009   -6.5289   16.2446 C   0  0  0  0  0  0  0  0  0  0  0  0
    7.7423   -7.5537   18.2753 C   0  0  0  0  0  0  0  0  0  0  0  0
    3.4828   -7.7773   29.0312 C   0  0  0  0  0  0  0  0  0  0  0  0
    3.8678   -8.5396   17.0335 C   0  0  0  0  0  0  0  0  0  0  0  0
    4.1533   -7.1809   15.1139 C   0  0  0  0  0  0  0  0  0  0  0  0
    4.6837   -7.7022   16.2908 C   0  0  0  0  0  0  0  0  0  0  0  0
    0.2905   -8.9112   14.0536 C   0  0  0  0  0  0  0  0  0  0  0  0
    2.6749   -5.3673   28.6677 C   0  0  0  0  0  0  0  0  0  0  0  0
    2.5584   -8.8165   16.6433 C   0  0  0  0  0  0  0  0  0  0  0  0
    4.4815  -10.2717   29.7373 C   0  0  0  0  0  0  0  0  0  0  0  0
    0.7929   -5.2230   26.9960 C   0  0  0  0  0  0  0  0  0  0  0  0
    4.8899  -11.3619   30.0367 O   0  0  0  0  0  0  0  0  0  0  0  0
    2.7890   -6.7234   28.4033 C   0  0  0  0  0  0  0  0  0  0  0  0
    3.3103   -8.9167   28.2464 C   0  0  0  0  0  0  0  0  0  0  0  0
    4.1874   -7.9188   30.1988 C   0  0  0  0  0  0  0  0  0  0  0  0
    2.4668   -8.5817   27.1244 N   0  0  0  0  0  0  0  0  0  0  0  0
    2.8673   -7.5421   14.6860 C   0  0  0  0  0  0  0  0  0  0  0  0
    6.8979   -6.8016   15.7975 C   0  0  0  0  0  0  0  0  0  0  0  0
    4.7303   -9.1430   30.5946 C   0  0  0  0  0  0  0  0  0  0  0  0
    2.1316   -7.1929   27.3217 C   0  0  0  0  0  0  0  0  0  0  0  0
    2.0934   -8.3150   15.4834 C   0  0  0  0  0  0  0  0  0  0  0  0
    3.7966  -10.1114   28.5751 N   0  0  0  0  0  0  0  0  0  0  0  0
  1 13  1  0
  1 27  1  0
  2  3  4  0
  2  8  4  0
  3 12  1  0
  3 24  4  0
  4 14  1  0
  4 17  1  0
  5  7  4  0
  5  8  4  0
  6 17  1  0
  6 26  1  0
  7 24  4  0
  9 19  4  0
  9 20  4  0
  9 21  4  0
 10 12  4  0
 10 15  4  0
 11 12  4  0
 11 23  4  0
 14 19  1  0
 15 27  4  0
 16 18  2  0
 16 25  4  0
 16 28  4  0
 19 26  4  0
 20 22  4  0
 20 28  4  0
 21 25  4  0
 22 26  4  0
 23 27  4  0
M  END
$$$$

 Created by Python create_sdf_string function

 28 28  0  0  0  0  0  0  0  0999 V2000
    6.5337   -7.8486   17.9144 C   0  0  0  0  0  0  0  0  0  0  0  0
    5.7727   -7.3277   16.7430 C   0  0  0  0  0  0  0  0  0  0  0  0
    1.7821   -4.6408   27.4985 C   0  0  0  0  0  0  0  0  0  0  0  0
    8.4609   -6.9985   17.2963 C   0  0  0  0  0  0  0  0  0  0  0  0
    0.9086   -6.5697   26.4436 C   0  0  0  0  0  0  0  0  0  0  0  0
    7.7802   -7.5792   18.0971 C   0  0  0  0  0  0  0  0  0  0  0  0
    3.3901   -7.7139   29.3080 C   0  0  0  0  0  0  0  0  0  0  0  0
    4.0771   -7.3541   15.0634 C   0  0  0  0  0  0  0  0  0  0  0  0
    4.6674   -8.0559   16.5710 C   0  0  0  0  0  0  0  0  0  0  0  0
    0.2152   -8.7254   14.1023 C   0  0  0  0  0  0  0  0  0  0  0  0
    2.7511   -5.2138   28.6349 C   0  0  0  0  0  0  0  0  0  0  0  0
    2.4072   -8.8021   16.7889 C   0  0  0  0  0  0  0  0  0  0  0  0
    4.3522  -10.3069   29.8645 C   0  0  0  0  0  0  0  0  0  0  0  0
    4.8753  -11.4231   30.2381 O   0  0  0  0  0  0  0  0  0  0  0  0
    2.9905   -6.4133   28.6652 C   0  0  0  0  0  0  0  0  0  0  0  0
    3.3313   -8.7362   27.9447 C   0  0  0  0  0  0  0  0  0  0  0  0
    6.8244   -6.6874   15.7744 C   0  0  0  0  0  0  0  0  0  0  0  0
    4.8801   -9.1482   30.4854 C   0  0  0  0  0  0  0  0  0  0  0  0
    2.6150   -6.9636   27.2053 C   0  0  0  0  0  0  0  0  0  0  0  0
    1.7700   -8.3558   15.6610 C   0  0  0  0  0  0  0  0  0  0  0  0
    3.7467   -9.9053   28.7786 N   0  0  0  0  0  0  0  0  0  0  0  0
    0.6558   -8.7850   15.2155 He  0  0  0  0  0  0  0  0  0  0  0  0
    8.3856   -6.6094   16.3086 He  0  0  0  0  0  0  0  0  0  0  0  0
    3.4678   -8.8382   16.8543 He  0  0  0  0  0  0  0  0  0  0  0  0
    0.9233   -5.2688   27.2304 He  0  0  0  0  0  0  0  0  0  0  0  0
    3.9221   -8.2294   30.1020 He  0  0  0  0  0  0  0  0  0  0  0  0
    2.4319   -8.3216   27.1206 He  0  0  0  0  0  0  0  0  0  0  0  0
    2.8611   -7.6699   14.7406 He  0  0  0  0  0  0  0  0  0  0  0  0
  1  2  4  0
  2  9  1  0
  2 12  3  0
  2 15  4  0
  2 17  4  0
  3 11  1  0
  3 20  1  0
  4  6  4  0
  4  8  2  0
  5  7  3  0
  5 19  1  0
  6 18  4  0
  7 14  1  0
  7 15  4  0
  7 16  4  0
  8  9  4  0
  9 15  3  0
 11 15  1  0
 11 16  4  0
 12 16  2  0
 12 20  4  0
 13 14  3  0
 13 18  4  0
 13 21  4  0
 15 17  2  0
 15 19  3  0
 16 17  1  0
 16 21  4  0
M  END
$$$$

 Created by Python create_sdf_string function

 28 31  0  0  0  0  0  0  0  0999 V2000
    0.6287   -8.7103   15.3548 O   0  0  0  0  0  0  0  0  0  0  0  0
    6.4200   -7.9337   17.9130 C   0  0  0  0  0  0  0  0  0  0  0  0
    5.9156   -7.5405   16.6825 C   0  0  0  0  0  0  0  0  0  0  0  0
    1.9095   -4.4626   27.7466 C   0  0  0  0  0  0  0  0  0  0  0  0
    8.5310   -6.9627   17.3583 C   0  0  0  0  0  0  0  0  0  0  0  0
    1.1634   -6.4211   26.6126 C   0  0  0  0  0  0  0  0  0  0  0  0
    8.0776   -6.4967   16.1867 C   0  0  0  0  0  0  0  0  0  0  0  0
    7.7640   -7.6554   18.2306 C   0  0  0  0  0  0  0  0  0  0  0  0
    3.4709   -7.6989   29.0782 C   0  0  0  0  0  0  0  0  0  0  0  0
    3.7596   -8.6054   17.1263 C   0  0  0  0  0  0  0  0  0  0  0  0
    4.0576   -7.3680   15.1245 C   0  0  0  0  0  0  0  0  0  0  0  0
    4.6202   -7.8405   16.3331 C   0  0  0  0  0  0  0  0  0  0  0  0
    0.1674   -8.6722   14.0495 C   0  0  0  0  0  0  0  0  0  0  0  0
    2.7135   -5.2733   28.6754 C   0  0  0  0  0  0  0  0  0  0  0  0
    2.4839   -8.9330   16.7808 C   0  0  0  0  0  0  0  0  0  0  0  0
    4.4342  -10.2573   29.7670 C   0  0  0  0  0  0  0  0  0  0  0  0
    0.8308   -5.1146   27.1297 C   0  0  0  0  0  0  0  0  0  0  0  0
    4.8326  -11.4197   30.0668 O   0  0  0  0  0  0  0  0  0  0  0  0
    2.8014   -6.6212   28.4054 C   0  0  0  0  0  0  0  0  0  0  0  0
    3.2772   -8.8250   28.2609 C   0  0  0  0  0  0  0  0  0  0  0  0
    4.1869   -7.8475   30.2492 C   0  0  0  0  0  0  0  0  0  0  0  0
    2.5732   -8.4456   27.1315 N   0  0  0  0  0  0  0  0  0  0  0  0
    2.7529   -7.6487   14.7540 C   0  0  0  0  0  0  0  0  0  0  0  0
    6.7555   -6.7793   15.8180 C   0  0  0  0  0  0  0  0  0  0  0  0
    4.6502   -9.1306   30.6450 C   0  0  0  0  0  0  0  0  0  0  0  0
    2.1728   -7.1143   27.2700 C   0  0  0  0  0  0  0  0  0  0  0  0
    1.9729   -8.4361   15.6096 C   0  0  0  0  0  0  0  0  0  0  0  0
    3.7559  -10.0521   28.6116 N   0  0  0  0  0  0  0  0  0  0  0  0
  1 13  1  0
  1 27  1  0
  2  3  4  0
  2  8  4  0
  3 12  1  0
  3 24  4  0
  4 14  1  0
  4 17  1  0
  5  7  4  0
  5  8  4  0
  6 17  1  0
  6 26  1  0
  7 24  4  0
  9 19  4  0
  9 20  4  0
  9 21  4  0
 10 12  4  0
 10 15  4  0
 11 12  4  0
 11 23  4  0
 14 19  1  0
 15 27  4  0
 16 18  2  0
 16 25  4  0
 16 28  4  0
 19 26  4  0
 20 22  4  0
 20 28  4  0
 21 25  4  0
 22 26  4  0
 23 27  4  0
M  END
$$$$

 Created by Python create_sdf_string function

 28 39  0  0  0  0  0  0  0  0999 V2000
    0.5804   -8.5049   15.2422 O   0  0  0  0  0  0  0  0  0  0  0  0
    6.5724   -7.8817   17.9745 C   0  0  0  0  0  0  0  0  0  0  0  0
    5.9067   -7.8526   16.6264 C   0  0  0  0  0  0  0  0  0  0  0  0
    8.4803   -7.1209   17.2883 C   0  0  0  0  0  0  0  0  0  0  0  0
    8.1880   -6.4966   16.2117 C   0  0  0  0  0  0  0  0  0  0  0  0
    7.8701   -7.6495   18.1526 C   0  0  0  0  0  0  0  0  0  0  0  0
    3.7246   -7.6736   29.0236 C   0  0  0  0  0  0  0  0  0  0  0  0
    3.6881   -8.3584   17.2498 C   0  0  0  0  0  0  0  0  0  0  0  0
    3.9130   -7.4608   15.1064 C   0  0  0  0  0  0  0  0  0  0  0  0
    4.5573   -7.8099   16.4403 C   0  0  0  0  0  0  0  0  0  0  0  0
    0.0607   -8.6866   13.6662 C   0  0  0  0  0  0  0  0  0  0  0  0
    2.8943   -5.2445   28.9173 C   0  0  0  0  0  0  0  0  0  0  0  0
    2.3978   -9.1279   16.7633 C   0  0  0  0  0  0  0  0  0  0  0  0
    4.3946  -10.0404   29.3468 C   0  0  0  0  0  0  0  0  0  0  0  0
    1.0187   -4.9441   27.2102 C   0  0  0  0  0  0  0  0  0  0  0  0
    5.1087  -11.4081   29.9730 O   0  0  0  0  0  0  0  0  0  0  0  0
    2.5690   -6.3566   28.2988 C   0  0  0  0  0  0  0  0  0  0  0  0
    3.0044   -8.3808   28.3645 C   0  0  0  0  0  0  0  0  0  0  0  0
    4.2696   -7.7373   29.9209 C   0  0  0  0  0  0  0  0  0  0  0  0
    2.4896   -8.5183   27.1491 N   0  0  0  0  0  0  0  0  0  0  0  0
    2.6162   -7.6774   14.7903 C   0  0  0  0  0  0  0  0  0  0  0  0
    6.7225   -6.7989   15.7276 C   0  0  0  0  0  0  0  0  0  0  0  0
    5.1181   -8.7642   30.4884 C   0  0  0  0  0  0  0  0  0  0  0  0
    2.1617   -7.3016   27.1444 C   0  0  0  0  0  0  0  0  0  0  0  0
    1.8707   -8.7088   15.7280 C   0  0  0  0  0  0  0  0  0  0  0  0
    4.2443  -10.0520   28.7548 N   0  0  0  0  0  0  0  0  0  0  0  0
    1.7407   -4.3934   27.7200 He  0  0  0  0  0  0  0  0  0  0  0  0
    1.3537   -6.1507   26.5782 He  0  0  0  0  0  0  0  0  0  0  0  0
  1 11  1  0
  1 25  1  0
  2  3  4  0
  2  6  4  0
  2 26  4  0
  3  8  1  0
  3  9  3  0
  3 10  1  0
  3 22  4  0
  4  5  4  0
  4  6  4  0
  4  7  2  0
  5 10  2  0
  5 11  3  0
  5 16  1  0
  5 22  4  0
  7 17  4  0
  7 18  4  0
  7 19  4  0
  7 23  2  0
  8 10  4  0
  9 10  4  0
  9 21  4  0
 11 12  4  0
 11 24  3  0
 12 17  1  0
 12 25  2  0
 13 19  4  0
 13 26  2  0
 14 16  2  0
 14 23  4  0
 14 24  3  0
 14 26  4  0
 17 24  4  0
 18 20  4  0
 19 23  4  0
 20 24  4  0
 21 25  4  0
 22 23  1  0
M  END
$$$$

 Created by Python create_sdf_string function

 28 31  0  0  0  0  0  0  0  0999 V2000
    0.6016   -8.7901   15.2867 O   0  0  0  0  0  0  0  0  0  0  0  0
    6.4282   -7.9977   17.8855 C   0  0  0  0  0  0  0  0  0  0  0  0
    5.8837   -7.5637   16.6975 C   0  0  0  0  0  0  0  0  0  0  0  0
    1.9207   -4.3708   27.8692 C   0  0  0  0  0  0  0  0  0  0  0  0
    8.5324   -6.9991   17.3113 C   0  0  0  0  0  0  0  0  0  0  0  0
    1.2841   -6.2947   26.5585 C   0  0  0  0  0  0  0  0  0  0  0  0
    8.0614   -6.5671   16.1175 C   0  0  0  0  0  0  0  0  0  0  0  0
    7.7981   -7.7325   18.1781 C   0  0  0  0  0  0  0  0  0  0  0  0
    3.5565   -7.5932   28.9598 C   0  0  0  0  0  0  0  0  0  0  0  0
    3.7132   -8.6522   17.1494 C   0  0  0  0  0  0  0  0  0  0  0  0
    4.0145   -7.4006   15.1579 C   0  0  0  0  0  0  0  0  0  0  0  0
    4.5597   -7.8636   16.3667 C   0  0  0  0  0  0  0  0  0  0  0  0
    0.1941   -8.6334   13.9297 C   0  0  0  0  0  0  0  0  0  0  0  0
    2.7303   -5.2183   28.7440 C   0  0  0  0  0  0  0  0  0  0  0  0
    2.3900   -8.9034   16.7965 C   0  0  0  0  0  0  0  0  0  0  0  0
    4.6673  -10.0625   29.6349 C   0  0  0  0  0  0  0  0  0  0  0  0
    0.9341   -5.0082   27.0740 C   0  0  0  0  0  0  0  0  0  0  0  0
    5.1136  -11.1743   29.9616 O   0  0  0  0  0  0  0  0  0  0  0  0
    2.8112   -6.5643   28.3918 C   0  0  0  0  0  0  0  0  0  0  0  0
    3.3091   -8.7445   28.2254 C   0  0  0  0  0  0  0  0  0  0  0  0
    4.3906   -7.6690   30.0697 C   0  0  0  0  0  0  0  0  0  0  0  0
    2.4644   -8.4159   27.2000 N   0  0  0  0  0  0  0  0  0  0  0  0
    2.7111   -7.7534   14.7673 C   0  0  0  0  0  0  0  0  0  0  0  0
    6.7175   -6.8454   15.7867 C   0  0  0  0  0  0  0  0  0  0  0  0
    4.9898   -8.9048   30.4119 C   0  0  0  0  0  0  0  0  0  0  0  0
    2.1358   -7.0754   27.3114 C   0  0  0  0  0  0  0  0  0  0  0  0
    1.9259   -8.4687   15.6151 C   0  0  0  0  0  0  0  0  0  0  0  0
    3.8457   -9.9286   28.5508 N   0  0  0  0  0  0  0  0  0  0  0  0
  1 13  1  0
  1 27  1  0
  2  3  4  0
  2  8  4  0
  3 12  1  0
  3 24  4  0
  4 14  1  0
  4 17  1  0
  5  7  4  0
  5  8  4  0
  6 17  1  0
  6 26  1  0
  7 24  4  0
  9 19  4  0
  9 20  4  0
  9 21  4  0
 10 12  4  0
 10 15  4  0
 11 12  4  0
 11 23  4  0
 14 19  1  0
 15 27  4  0
 16 18  2  0
 16 25  4  0
 16 28  4  0
 19 26  4  0
 20 22  4  0
 20 28  4  0
 21 25  4  0
 22 26  4  0
 23 27  4  0
M  END
$$$$

 Created by Python create_sdf_string function

 28 48  0  0  0  0  0  0  0  0999 V2000
    0.6799   -8.9260   15.4150 O   0  0  0  0  0  0  0  0  0  0  0  0
    6.6126   -7.8572   17.9720 C   0  0  0  0  0  0  0  0  0  0  0  0
    5.8790   -7.7067   16.6056 C   0  0  0  0  0  0  0  0  0  0  0  0
    1.6959   -4.5753   27.8415 C   0  0  0  0  0  0  0  0  0  0  0  0
    1.3183   -6.2221   26.7962 C   0  0  0  0  0  0  0  0  0  0  0  0
    7.7691   -7.7636   18.1298 C   0  0  0  0  0  0  0  0  0  0  0  0
    3.5567   -7.9053   28.7191 C   0  0  0  0  0  0  0  0  0  0  0  0
    4.0704   -8.7990   17.2220 C   0  0  0  0  0  0  0  0  0  0  0  0
    4.0593   -7.3815   15.0488 C   0  0  0  0  0  0  0  0  0  0  0  0
    4.3400   -7.5057   16.2762 C   0  0  0  0  0  0  0  0  0  0  0  0
    0.1332   -8.6452   13.9609 C   0  0  0  0  0  0  0  0  0  0  0  0
    2.8455   -5.2362   28.7550 C   0  0  0  0  0  0  0  0  0  0  0  0
    2.5467   -8.9060   16.6702 C   0  0  0  0  0  0  0  0  0  0  0  0
    4.5936   -9.8275   29.5416 C   0  0  0  0  0  0  0  0  0  0  0  0
    0.7724   -5.0111   27.2634 Cl  0  0  0  0  0  0  0  0  0  0  0  0
    5.0848  -10.9596   30.1172 O   0  0  0  0  0  0  0  0  0  0  0  0
    2.8829   -6.5887   28.1721 C   0  0  0  0  0  0  0  0  0  0  0  0
    3.5581   -8.8859   28.1788 C   0  0  0  0  0  0  0  0  0  0  0  0
    2.1100   -8.2809   27.2922 N   0  0  0  0  0  0  0  0  0  0  0  0
    2.7815   -7.8133   14.6643 C   0  0  0  0  0  0  0  0  0  0  0  0
    6.8004   -6.8241   15.7334 C   0  0  0  0  0  0  0  0  0  0  0  0
    4.8556   -8.8373   30.2889 C   0  0  0  0  0  0  0  0  0  0  0  0
    2.1781   -7.2141   27.5326 C   0  0  0  0  0  0  0  0  0  0  0  0
    2.0282   -8.6833   15.4847 C   0  0  0  0  0  0  0  0  0  0  0  0
    3.9824   -9.8935   28.6356 I   0  0  0  0  0  0  0  0  0  0  0  0
    8.5525   -6.8223   17.0694 He  0  0  0  0  0  0  0  0  0  0  0  0
    7.9507   -6.5730   15.9536 He  0  0  0  0  0  0  0  0  0  0  0  0
    4.5464   -8.2076   29.8389 He  0  0  0  0  0  0  0  0  0  0  0  0
  1  7  3  0
  1 11  1  0
  1 24  1  0
  2  3  4  0
  2  6  4  0
  3 10  1  0
  3 21  4  0
  4  8  3  0
  4 11  3  0
  4 12  1  0
  4 15  1  0
  5  6  2  0
  5 15  1  0
  5 17  1  0
  5 23  1  0
  5 24  4  0
  6  9  3  0
  6 22  3  0
  7 14  3  0
  7 15  1  0
  7 17  4  0
  7 18  4  0
  8 10  4  0
  8 13  4  0
  8 14  2  0
  8 18  2  0
  8 20  1  0
  9 10  4  0
  9 20  4  0
  9 22  3  0
 10 19  4  0
 11 23  3  0
 12 17  1  0
 12 22  2  0
 12 23  2  0
 13 24  4  0
 14 16  2  0
 14 22  4  0
 14 25  4  0
 15 17  1  0
 15 21  3  0
 16 17  4  0
 16 19  1  0
 17 25  3  0
 18 19  4  0
 18 25  4  0
 19 23  4  0
 20 24  4  0
M  END
$$$$

 Created by Python create_sdf_string function

 28 31  0  0  0  0  0  0  0  0999 V2000
    0.7273   -8.9842   15.2822 O   0  0  0  0  0  0  0  0  0  0  0  0
    6.4947   -7.9204   17.8236 C   0  0  0  0  0  0  0  0  0  0  0  0
    5.9249   -7.5337   16.5927 C   0  0  0  0  0  0  0  0  0  0  0  0
    1.8516   -4.4238   27.9989 C   0  0  0  0  0  0  0  0  0  0  0  0
    8.5470   -6.9401   17.1862 C   0  0  0  0  0  0  0  0  0  0  0  0
    1.0787   -6.3188   26.7164 C   0  0  0  0  0  0  0  0  0  0  0  0
    8.0558   -6.5121   16.0162 C   0  0  0  0  0  0  0  0  0  0  0  0
    7.8376   -7.6257   18.0984 C   0  0  0  0  0  0  0  0  0  0  0  0
    3.5814   -7.6582   28.8660 C   0  0  0  0  0  0  0  0  0  0  0  0
    3.8534   -8.6330   17.0915 C   0  0  0  0  0  0  0  0  0  0  0  0
    4.0448   -7.3843   15.0589 C   0  0  0  0  0  0  0  0  0  0  0  0
    4.6516   -7.8460   16.2769 C   0  0  0  0  0  0  0  0  0  0  0  0
    0.2057   -8.6462   14.0478 C   0  0  0  0  0  0  0  0  0  0  0  0
    2.7936   -5.2585   28.6596 C   0  0  0  0  0  0  0  0  0  0  0  0
    2.5629   -9.0107   16.7289 C   0  0  0  0  0  0  0  0  0  0  0  0
    4.6572  -10.1277   29.5978 C   0  0  0  0  0  0  0  0  0  0  0  0
    0.8437   -4.9909   27.2057 C   0  0  0  0  0  0  0  0  0  0  0  0
    5.0904  -11.1856   29.9868 O   0  0  0  0  0  0  0  0  0  0  0  0
    2.8345   -6.6211   28.3252 C   0  0  0  0  0  0  0  0  0  0  0  0
    3.2614   -8.8331   28.1755 C   0  0  0  0  0  0  0  0  0  0  0  0
    4.4844   -7.6770   29.9104 C   0  0  0  0  0  0  0  0  0  0  0  0
    2.3465   -8.4567   27.2230 N   0  0  0  0  0  0  0  0  0  0  0  0
    2.7525   -7.7764   14.7106 C   0  0  0  0  0  0  0  0  0  0  0  0
    6.7263   -6.7872   15.6884 C   0  0  0  0  0  0  0  0  0  0  0  0
    5.0075   -8.9094   30.3044 C   0  0  0  0  0  0  0  0  0  0  0  0
    2.0335   -7.1013   27.3371 C   0  0  0  0  0  0  0  0  0  0  0  0
    2.0459   -8.5785   15.5622 C   0  0  0  0  0  0  0  0  0  0  0  0
    3.8244  -10.0484   28.5264 N   0  0  0  0  0  0  0  0  0  0  0  0
  1 13  1  0
  1 27  1  0
  2  3  4  0
  2  8  4  0
  3 12  1  0
  3 24  4  0
  4 14  1  0
  4 17  1  0
  5  7  4  0
  5  8  4  0
  6 17  1  0
  6 26  1  0
  7 24  4  0
  9 19  4  0
  9 20  4  0
  9 21  4  0
 10 12  4  0
 10 15  4  0
 11 12  4  0
 11 23  4  0
 14 19  1  0
 15 27  4  0
 16 18  2  0
 16 25  4  0
 16 28  4  0
 19 26  4  0
 20 22  4  0
 20 28  4  0
 21 25  4  0
 22 26  4  0
 23 27  4  0
M  END
$$$$

 Created by Python create_sdf_string function

 28 51  0  0  0  0  0  0  0  0999 V2000
    0.8830   -8.9931   15.2513 O   0  0  0  0  0  0  0  0  0  0  0  0
    6.7468   -8.1644   17.8520 O   0  0  0  0  0  0  0  0  0  0  0  0
    5.9747   -7.6863   16.5809 C   0  0  0  0  0  0  0  0  0  0  0  0
    1.8818   -4.6365   27.9666 C   0  0  0  0  0  0  0  0  0  0  0  0
    8.7143   -6.8577   17.0130 C   0  0  0  0  0  0  0  0  0  0  0  0
    0.9264   -6.2049   26.8058 C   0  0  0  0  0  0  0  0  0  0  0  0
    8.1889   -6.5521   16.2659 C   0  0  0  0  0  0  0  0  0  0  0  0
    7.6782   -7.6858   18.2065 C   0  0  0  0  0  0  0  0  0  0  0  0
    3.5421   -7.5555   28.8207 C   0  0  0  0  0  0  0  0  0  0  0  0
    3.6929   -8.6330   16.9771 C   0  0  0  0  0  0  0  0  0  0  0  0
    4.2404   -7.6093   14.8724 C   0  0  0  0  0  0  0  0  0  0  0  0
    4.3525   -7.5854   16.4357 C   0  0  0  0  0  0  0  0  0  0  0  0
    0.1422   -8.6740   14.0666 C   0  0  0  0  0  0  0  0  0  0  0  0
    2.5484   -5.3085   28.9059 C   0  0  0  0  0  0  0  0  0  0  0  0
    2.6046   -8.9200   16.8284 C   0  0  0  0  0  0  0  0  0  0  0  0
    4.4154  -10.0303   29.8444 C   0  0  0  0  0  0  0  0  0  0  0  0
    0.9180   -5.1799   27.0482 C   0  0  0  0  0  0  0  0  0  0  0  0
    5.0786  -11.2660   29.8347 O   0  0  0  0  0  0  0  0  0  0  0  0
    2.9117   -6.6210   28.3567 C   0  0  0  0  0  0  0  0  0  0  0  0
    3.1750   -8.6693   28.2797 C   0  0  0  0  0  0  0  0  0  0  0  0
    4.4130   -7.8934   29.9423 C   0  0  0  0  0  0  0  0  0  0  0  0
    2.4634   -8.1514   27.2828 N   0  0  0  0  0  0  0  0  0  0  0  0
    2.7088   -7.5679   14.5649 C   0  0  0  0  0  0  0  0  0  0  0  0
    6.7079   -6.8157   15.6083 C   0  0  0  0  0  0  0  0  0  0  0  0
    4.8764   -8.5916   30.2177 C   0  0  0  0  0  0  0  0  0  0  0  0
    1.9814   -8.4867   15.6888 C   0  0  0  0  0  0  0  0  0  0  0  0
    3.7265  -10.0780   28.5293 N   0  0  0  0  0  0  0  0  0  0  0  0
    2.0193   -7.0069   27.2766 He  0  0  0  0  0  0  0  0  0  0  0  0
  1  9  1  0
  1 12  1  0
  1 13  1  0
  2  3  4  0
  2  8  4  0
  3  4  4  0
  3 12  1  0
  3 19  4  0
  3 24  4  0
  4  8  3  0
  4  9  3  0
  4 11  4  0
  4 14  1  0
  4 17  1  0
  4 20  4  0
  4 25  1  0
  4 26  2  0
  5  7  4  0
  5  8  2  0
  5 11  4  0
  5 16  2  0
  6 11  4  0
  6 17  1  0
  7  9  3  0
  7 21  3  0
  7 24  4  0
  8 15  3  0
  9 19  4  0
  9 20  4  0
  9 21  4  0
  9 22  1  0
 10 12  4  0
 10 13  4  0
 10 15  4  0
 10 16  4  0
 10 21  1  0
 11 23  4  0
 12 20  4  0
 12 26  4  0
 14 17  2  0
 14 19  1  0
 15 18  3  0
 15 26  4  0
 16 18  2  0
 16 20  3  0
 16 25  4  0
 16 27  4  0
 20 22  4  0
 20 27  4  0
 21 25  4  0
 23 26  4  0
M  END
$$$$

 Created by Python create_sdf_string function

 28 31  0  0  0  0  0  0  0  0999 V2000
    0.7647   -8.9356   15.3002 O   0  0  0  0  0  0  0  0  0  0  0  0
    6.5306   -8.0006   17.7891 C   0  0  0  0  0  0  0  0  0  0  0  0
    5.9899   -7.5713   16.5710 C   0  0  0  0  0  0  0  0  0  0  0  0
    1.7994   -4.3655   27.9325 C   0  0  0  0  0  0  0  0  0  0  0  0
    8.5788   -6.9451   17.2652 C   0  0  0  0  0  0  0  0  0  0  0  0
    0.9869   -6.3538   26.7403 C   0  0  0  0  0  0  0  0  0  0  0  0
    8.1101   -6.4857   16.0727 C   0  0  0  0  0  0  0  0  0  0  0  0
    7.8621   -7.7257   18.1000 C   0  0  0  0  0  0  0  0  0  0  0  0
    3.5206   -7.5981   28.9314 C   0  0  0  0  0  0  0  0  0  0  0  0
    3.8568   -8.5759   17.1006 C   0  0  0  0  0  0  0  0  0  0  0  0
    4.0911   -7.4056   15.0341 C   0  0  0  0  0  0  0  0  0  0  0  0
    4.6764   -7.8655   16.2467 C   0  0  0  0  0  0  0  0  0  0  0  0
    0.2018   -8.6256   14.0919 C   0  0  0  0  0  0  0  0  0  0  0  0
    2.5716   -5.2217   28.7873 C   0  0  0  0  0  0  0  0  0  0  0  0
    2.5317   -8.8857   16.7726 C   0  0  0  0  0  0  0  0  0  0  0  0
    4.5622  -10.0729   29.5975 C   0  0  0  0  0  0  0  0  0  0  0  0
    0.8489   -4.9550   27.0350 C   0  0  0  0  0  0  0  0  0  0  0  0
    4.9899  -11.1832   29.9247 O   0  0  0  0  0  0  0  0  0  0  0  0
    2.7380   -6.5641   28.3948 C   0  0  0  0  0  0  0  0  0  0  0  0
    3.1953   -8.7426   28.2168 C   0  0  0  0  0  0  0  0  0  0  0  0
    4.4222   -7.6634   29.9897 C   0  0  0  0  0  0  0  0  0  0  0  0
    2.3225   -8.3848   27.2384 N   0  0  0  0  0  0  0  0  0  0  0  0
    2.7750   -7.7725   14.6814 C   0  0  0  0  0  0  0  0  0  0  0  0
    6.7967   -6.7938   15.6975 C   0  0  0  0  0  0  0  0  0  0  0  0
    4.9343   -8.9130   30.3418 C   0  0  0  0  0  0  0  0  0  0  0  0
    1.9967   -7.0618   27.3791 C   0  0  0  0  0  0  0  0  0  0  0  0
    2.0585   -8.5190   15.5749 C   0  0  0  0  0  0  0  0  0  0  0  0
    3.7036   -9.9484   28.5447 N   0  0  0  0  0  0  0  0  0  0  0  0
  1 13  1  0
  1 27  1  0
  2  3  4  0
  2  8  4  0
  3 12  1  0
  3 24  4  0
  4 14  1  0
  4 17  1  0
  5  7  4  0
  5  8  4  0
  6 17  1  0
  6 26  1  0
  7 24  4  0
  9 19  4  0
  9 20  4  0
  9 21  4  0
 10 12  4  0
 10 15  4  0
 11 12  4  0
 11 23  4  0
 14 19  1  0
 15 27  4  0
 16 18  2  0
 16 25  4  0
 16 28  4  0
 19 26  4  0
 20 22  4  0
 20 28  4  0
 21 25  4  0
 22 26  4  0
 23 27  4  0
M  END
$$$$

 Created by Python create_sdf_string function

 28 49  0  0  0  0  0  0  0  0999 V2000
    0.6317   -8.8889   15.2666 O   0  0  0  0  0  0  0  0  0  0  0  0
    6.5190   -7.6823   17.7244 C   0  0  0  0  0  0  0  0  0  0  0  0
    5.8554   -7.5543   16.6387 C   0  0  0  0  0  0  0  0  0  0  0  0
    1.7024   -4.2333   27.7626 C   0  0  0  0  0  0  0  0  0  0  0  0
    8.4803   -6.9982   17.1891 C   0  0  0  0  0  0  0  0  0  0  0  0
    1.1220   -6.2782   26.6299 C   0  0  0  0  0  0  0  0  0  0  0  0
    8.0689   -6.6816   16.1765 C   0  0  0  0  0  0  0  0  0  0  0  0
    7.8568   -7.5576   18.2140 C   0  0  0  0  0  0  0  0  0  0  0  0
    3.3214   -7.6676   28.8028 C   0  0  0  0  0  0  0  0  0  0  0  0
    3.4811   -8.7475   17.1631 C   0  0  0  0  0  0  0  0  0  0  0  0
    4.1131   -7.1614   14.9246 C   0  0  0  0  0  0  0  0  0  0  0  0
    4.5882   -8.1684   16.0280 O   0  0  0  0  0  0  0  0  0  0  0  0
    2.7671   -5.5429   28.7253 C   0  0  0  0  0  0  0  0  0  0  0  0
    2.4298   -9.0669   16.6746 C   0  0  0  0  0  0  0  0  0  0  0  0
    0.8401   -4.6024   26.9342 C   0  0  0  0  0  0  0  0  0  0  0  0
    2.8830   -6.5993   28.2826 C   0  0  0  0  0  0  0  0  0  0  0  0
    3.1350   -8.9663   28.3601 C   0  0  0  0  0  0  0  0  0  0  0  0
    4.4258   -7.8139   30.1367 C   0  0  0  0  0  0  0  0  0  0  0  0
    2.3056   -8.2062   27.1258 N   0  0  0  0  0  0  0  0  0  0  0  0
    2.7330   -7.9377   14.6886 C   0  0  0  0  0  0  0  0  0  0  0  0
    6.8091   -6.9982   15.8676 C   0  0  0  0  0  0  0  0  0  0  0  0
    5.0281   -8.9177   30.3457 C   0  0  0  0  0  0  0  0  0  0  0  0
    2.1220   -6.9646   27.5158 C   0  0  0  0  0  0  0  0  0  0  0  0
    2.2103   -8.5644   15.8198 C   0  0  0  0  0  0  0  0  0  0  0  0
    3.7775  -10.2277   28.6291 N   0  0  0  0  0  0  0  0  0  0  0  0
    0.1601   -8.7408   14.0247 He  0  0  0  0  0  0  0  0  0  0  0  0
    4.4591   -9.9811   29.6809 He  0  0  0  0  0  0  0  0  0  0  0  0
    5.1308  -11.0661   29.8151 He  0  0  0  0  0  0  0  0  0  0  0  0
  1  4  1  0
  1 17  3  0
  1 24  1  0
  2  3  4  0
  2  4  3  0
  2  8  4  0
  3  5  2  0
  3 12  1  0
  3 19  3  0
  3 21  4  0
  4  6  2  0
  4 13  1  0
  4 15  1  0
  5  7  4  0
  5  8  4  0
  5 13  3  0
  5 15  1  0
  6 12  4  0
  6 14  4  0
  6 15  1  0
  6 23  1  0
  7 10  1  0
  7 15  3  0
  7 21  4  0
  7 24  2  0
  8 13  2  0
  9 16  4  0
  9 17  4  0
  9 18  4  0
  9 20  3  0
 10 12  4  0
 10 14  4  0
 11 12  4  0
 11 13  2  0
 11 20  4  0
 12 13  3  0
 12 15  1  0
 13 16  1  0
 14 15  3  0
 14 24  4  0
 15 17  2  0
 16 23  4  0
 17 19  4  0
 17 20  3  0
 17 25  4  0
 18 22  4  0
 19 23  4  0
 20 24  4  0
 21 22  4  0
M  END
$$$$

 Created by Python create_sdf_string function

 28 31  0  0  0  0  0  0  0  0999 V2000
    0.6865   -8.9243   15.3073 O   0  0  0  0  0  0  0  0  0  0  0  0
    6.4195   -7.8883   17.8692 C   0  0  0  0  0  0  0  0  0  0  0  0
    5.9085   -7.5668   16.6202 C   0  0  0  0  0  0  0  0  0  0  0  0
    1.9023   -4.3061   27.9301 C   0  0  0  0  0  0  0  0  0  0  0  0
    8.5185   -6.9446   17.2889 C   0  0  0  0  0  0  0  0  0  0  0  0
    1.0840   -6.2888   26.6408 C   0  0  0  0  0  0  0  0  0  0  0  0
    8.0944   -6.6099   16.0635 C   0  0  0  0  0  0  0  0  0  0  0  0
    7.7365   -7.5778   18.1829 C   0  0  0  0  0  0  0  0  0  0  0  0
    3.4945   -7.6355   28.9582 C   0  0  0  0  0  0  0  0  0  0  0  0
    3.8246   -8.7033   17.0768 C   0  0  0  0  0  0  0  0  0  0  0  0
    4.0474   -7.4603   15.0586 C   0  0  0  0  0  0  0  0  0  0  0  0
    4.6012   -7.9111   16.2777 C   0  0  0  0  0  0  0  0  0  0  0  0
    0.2237   -8.6944   14.0597 C   0  0  0  0  0  0  0  0  0  0  0  0
    2.7031   -5.2164   28.7045 C   0  0  0  0  0  0  0  0  0  0  0  0
    2.5263   -9.0392   16.7474 C   0  0  0  0  0  0  0  0  0  0  0  0
    4.5882  -10.0916   29.6052 C   0  0  0  0  0  0  0  0  0  0  0  0
    0.9512   -4.8719   26.9651 C   0  0  0  0  0  0  0  0  0  0  0  0
    5.0743  -11.1834   29.9123 O   0  0  0  0  0  0  0  0  0  0  0  0
    2.7705   -6.5817   28.3896 C   0  0  0  0  0  0  0  0  0  0  0  0
    3.1638   -8.7672   28.2527 C   0  0  0  0  0  0  0  0  0  0  0  0
    4.3621   -7.6845   30.0100 C   0  0  0  0  0  0  0  0  0  0  0  0
    2.2750   -8.4078   27.2677 N   0  0  0  0  0  0  0  0  0  0  0  0
    2.7542   -7.8057   14.7132 C   0  0  0  0  0  0  0  0  0  0  0  0
    6.7666   -6.9123   15.6966 C   0  0  0  0  0  0  0  0  0  0  0  0
    4.9297   -8.9216   30.3680 C   0  0  0  0  0  0  0  0  0  0  0  0
    2.0159   -7.0519   27.3626 C   0  0  0  0  0  0  0  0  0  0  0  0
    2.0044   -8.5770   15.5779 C   0  0  0  0  0  0  0  0  0  0  0  0
    3.7028   -9.9802   28.5761 N   0  0  0  0  0  0  0  0  0  0  0  0
  1 13  1  0
  1 27  1  0
  2  3  4  0
  2  8  4  0
  3 12  1  0
  3 24  4  0
  4 14  1  0
  4 17  1  0
  5  7  4  0
  5  8  4  0
  6 17  1  0
  6 26  1  0
  7 24  4  0
  9 19  4  0
  9 20  4  0
  9 21  4  0
 10 12  4  0
 10 15  4  0
 11 12  4  0
 11 23  4  0
 14 19  1  0
 15 27  4  0
 16 18  2  0
 16 25  4  0
 16 28  4  0
 19 26  4  0
 20 22  4  0
 20 28  4  0
 21 25  4  0
 22 26  4  0
 23 27  4  0
M  END
$$$$

 Created by Python create_sdf_string function

 28 41  0  0  0  0  0  0  0  0999 V2000
    0.7955   -8.8294   15.3430 O   0  0  0  0  0  0  0  0  0  0  0  0
    5.9503   -7.5825   16.7027 C   0  0  0  0  0  0  0  0  0  0  0  0
    1.9066   -4.2310   28.0739 C   0  0  0  0  0  0  0  0  0  0  0  0
    8.4743   -6.8491   17.1329 C   0  0  0  0  0  0  0  0  0  0  0  0
    1.3313   -6.2323   26.4185 C   0  0  0  0  0  0  0  0  0  0  0  0
    8.0459   -6.5702   16.0417 C   0  0  0  0  0  0  0  0  0  0  0  0
    7.6502   -7.6539   18.2233 C   0  0  0  0  0  0  0  0  0  0  0  0
    3.6433   -7.7672   29.0790 C   0  0  0  0  0  0  0  0  0  0  0  0
    3.9681   -8.3755   16.9388 C   0  0  0  0  0  0  0  0  0  0  0  0
    4.0936   -7.7202   15.0836 C   0  0  0  0  0  0  0  0  0  0  0  0
    4.5455   -8.0335   16.5250 C   0  0  0  0  0  0  0  0  0  0  0  0
    0.1908   -8.6753   14.1165 C   0  0  0  0  0  0  0  0  0  0  0  0
    2.5571   -5.0376   28.8659 C   0  0  0  0  0  0  0  0  0  0  0  0
    4.5027  -10.3247   29.5424 C   0  0  0  0  0  0  0  0  0  0  0  0
    0.9840   -4.9186   27.1484 C   0  0  0  0  0  0  0  0  0  0  0  0
    5.0850  -11.1675   30.0728 O   0  0  0  0  0  0  0  0  0  0  0  0
    2.7086   -6.7655   28.1889 C   0  0  0  0  0  0  0  0  0  0  0  0
    3.1293   -8.7020   28.1264 N   0  0  0  0  0  0  0  0  0  0  0  0
    4.2804   -7.7450   29.9304 C   0  0  0  0  0  0  0  0  0  0  0  0
    2.1520   -8.4560   27.2731 N   0  0  0  0  0  0  0  0  0  0  0  0
    2.9424   -7.6446   14.7040 C   0  0  0  0  0  0  0  0  0  0  0  0
    6.7900   -6.9154   15.7264 C   0  0  0  0  0  0  0  0  0  0  0  0
    4.7854   -8.9539   30.4237 C   0  0  0  0  0  0  0  0  0  0  0  0
    1.8083   -7.0244   27.3514 C   0  0  0  0  0  0  0  0  0  0  0  0
    2.3123   -8.5266   15.4769 C   0  0  0  0  0  0  0  0  0  0  0  0
    3.6327  -10.1059   28.6580 N   0  0  0  0  0  0  0  0  0  0  0  0
    6.4844   -8.1768   17.9690 He  0  0  0  0  0  0  0  0  0  0  0  0
    2.4678   -9.0106   16.6897 He  0  0  0  0  0  0  0  0  0  0  0  0
  1 12  1  0
  1 25  1  0
  2 11  1  0
  2 22  4  0
  2 26  2  0
  3 13  1  0
  3 15  1  0
  4  6  4  0
  4  7  4  0
  5 15  1  0
  5 24  1  0
  6 22  4  0
  8 17  4  0
  8 18  4  0
  8 19  4  0
  9 11  4  0
  9 20  2  0
  9 24  1  0
 10 11  4  0
 10 21  4  0
 10 26  1  0
 11 20  3  0
 11 23  2  0
 12 17  4  0
 12 25  3  0
 12 26  3  0
 13 17  1  0
 13 18  1  0
 14 16  2  0
 14 18  4  0
 14 23  4  0
 14 26  4  0
 17 24  4  0
 17 25  3  0
 18 20  4  0
 18 24  1  0
 18 26  4  0
 19 23  4  0
 20 24  4  0
 21 25  4  0
 21 26  2  0
M  END
$$$$

 Created by Python create_sdf_string function

 28 31  0  0  0  0  0  0  0  0999 V2000
    0.7729   -8.8713   15.2892 O   0  0  0  0  0  0  0  0  0  0  0  0
    6.4824   -7.9771   17.8829 C   0  0  0  0  0  0  0  0  0  0  0  0
    5.9750   -7.6141   16.6333 C   0  0  0  0  0  0  0  0  0  0  0  0
    1.8930   -4.3095   28.0154 C   0  0  0  0  0  0  0  0  0  0  0  0
    8.5262   -6.9188   17.3075 C   0  0  0  0  0  0  0  0  0  0  0  0
    1.2059   -6.2223   26.5658 C   0  0  0  0  0  0  0  0  0  0  0  0
    8.0808   -6.5209   16.0995 C   0  0  0  0  0  0  0  0  0  0  0  0
    7.8126   -7.6468   18.1759 C   0  0  0  0  0  0  0  0  0  0  0  0
    3.4235   -7.6555   28.9681 C   0  0  0  0  0  0  0  0  0  0  0  0
    3.8446   -8.6471   17.1102 C   0  0  0  0  0  0  0  0  0  0  0  0
    4.1517   -7.5202   15.0678 C   0  0  0  0  0  0  0  0  0  0  0  0
    4.6851   -7.9266   16.2876 C   0  0  0  0  0  0  0  0  0  0  0  0
    0.2412   -8.6155   14.0825 C   0  0  0  0  0  0  0  0  0  0  0  0
    2.6454   -5.2610   28.8212 C   0  0  0  0  0  0  0  0  0  0  0  0
    2.5341   -8.9095   16.7572 C   0  0  0  0  0  0  0  0  0  0  0  0
    4.4888  -10.1438   29.6253 C   0  0  0  0  0  0  0  0  0  0  0  0
    0.9370   -4.8752   27.0562 C   0  0  0  0  0  0  0  0  0  0  0  0
    4.9615  -11.2410   29.9360 O   0  0  0  0  0  0  0  0  0  0  0  0
    2.7082   -6.6175   28.4045 C   0  0  0  0  0  0  0  0  0  0  0  0
    3.0982   -8.8092   28.2537 C   0  0  0  0  0  0  0  0  0  0  0  0
    4.3299   -7.7067   30.0263 C   0  0  0  0  0  0  0  0  0  0  0  0
    2.2340   -8.4570   27.2651 N   0  0  0  0  0  0  0  0  0  0  0  0
    2.8577   -7.8510   14.6640 C   0  0  0  0  0  0  0  0  0  0  0  0
    6.7780   -6.8851   15.7162 C   0  0  0  0  0  0  0  0  0  0  0  0
    4.8518   -8.9778   30.3791 C   0  0  0  0  0  0  0  0  0  0  0  0
    2.0038   -7.0733   27.3394 C   0  0  0  0  0  0  0  0  0  0  0  0
    2.0803   -8.5249   15.5594 C   0  0  0  0  0  0  0  0  0  0  0  0
    3.6317  -10.0336   28.5681 N   0  0  0  0  0  0  0  0  0  0  0  0
  1 13  1  0
  1 27  1  0
  2  3  4  0
  2  8  4  0
  3 12  1  0
  3 24  4  0
  4 14  1  0
  4 17  1  0
  5  7  4  0
  5  8  4  0
  6 17  1  0
  6 26  1  0
  7 24  4  0
  9 19  4  0
  9 20  4  0
  9 21  4  0
 10 12  4  0
 10 15  4  0
 11 12  4  0
 11 23  4  0
 14 19  1  0
 15 27  4  0
 16 18  2  0
 16 25  4  0
 16 28  4  0
 19 26  4  0
 20 22  4  0
 20 28  4  0
 21 25  4  0
 22 26  4  0
 23 27  4  0
M  END
$$$$

 Created by Python create_sdf_string function

 28 40  0  0  0  0  0  0  0  0999 V2000
    0.7887   -8.7235   15.3758 O   0  0  0  0  0  0  0  0  0  0  0  0
    6.5777   -7.9567   17.8103 C   0  0  0  0  0  0  0  0  0  0  0  0
    5.9485   -7.6821   16.8605 C   0  0  0  0  0  0  0  0  0  0  0  0
    1.8856   -4.5405   27.9821 C   0  0  0  0  0  0  0  0  0  0  0  0
    8.4819   -6.7842   17.3849 C   0  0  0  0  0  0  0  0  0  0  0  0
    1.4740   -6.2838   26.6342 C   0  0  0  0  0  0  0  0  0  0  0  0
    7.9991   -6.4151   16.1194 C   0  0  0  0  0  0  0  0  0  0  0  0
    7.9353   -7.5910   18.2160 C   0  0  0  0  0  0  0  0  0  0  0  0
    3.4721   -7.4278   28.7538 C   0  0  0  0  0  0  0  0  0  0  0  0
    3.9145   -8.5838   17.1851 C   0  0  0  0  0  0  0  0  0  0  0  0
    4.1782   -7.4287   15.0414 C   0  0  0  0  0  0  0  0  0  0  0  0
    4.9065   -7.8093   16.2782 C   0  0  0  0  0  0  0  0  0  0  0  0
    0.1062   -8.5841   13.7464 C   0  0  0  0  0  0  0  0  0  0  0  0
    2.7330   -5.2581   28.7702 C   0  0  0  0  0  0  0  0  0  0  0  0
    2.6150   -8.7857   16.9572 C   0  0  0  0  0  0  0  0  0  0  0  0
    4.6527  -10.2422   29.5863 C   0  0  0  0  0  0  0  0  0  0  0  0
    0.9815   -4.9134   26.7812 C   0  0  0  0  0  0  0  0  0  0  0  0
    4.8373  -11.1701   30.0037 O   0  0  0  0  0  0  0  0  0  0  0  0
    2.8321   -6.6621   28.4205 C   0  0  0  0  0  0  0  0  0  0  0  0
    3.1500   -8.8436   27.9910 C   0  0  0  0  0  0  0  0  0  0  0  0
    4.1454   -7.8739   30.1144 Cl  0  0  0  0  0  0  0  0  0  0  0  0
    2.4292   -8.5990   27.4030 F   0  0  0  0  0  0  0  0  0  0  0  0
    2.9279   -7.7046   14.4686 C   0  0  0  0  0  0  0  0  0  0  0  0
    6.7625   -6.9378   15.5997 C   0  0  0  0  0  0  0  0  0  0  0  0
    4.6697   -8.9783   30.5769 C   0  0  0  0  0  0  0  0  0  0  0  0
    2.1592   -7.2902   27.3875 C   0  0  0  0  0  0  0  0  0  0  0  0
    2.0693   -8.6088   15.6646 C   0  0  0  0  0  0  0  0  0  0  0  0
    3.4447   -9.9353   28.4186 N   0  0  0  0  0  0  0  0  0  0  0  0
  1 13  1  0
  1 27  1  0
  1 28  3  0
  2  3  4  0
  2  8  4  0
  2 21  4  0
  3 24  4  0
  4 14  1  0
  4 17  1  0
  4 24  4  0
  5  7  4  0
  5  8  4  0
  5 14  3  0
  5 22  4  0
  6 26  1  0
  7 24  4  0
  8 26  1  0
  9 19  4  0
  9 20  4  0
 10 12  4  0
 10 15  4  0
 10 21  2  0
 10 27  4  0
 11 12  4  0
 11 23  4  0
 13 20  1  0
 14 19  1  0
 14 28  2  0
 15 24  4  0
 15 27  3  0
 16 18  2  0
 16 25  4  0
 16 28  4  0
 18 19  2  0
 19 26  4  0
 20 22  4  0
 20 23  1  0
 20 28  4  0
 21 25  4  0
 22 26  4  0
M  END
$$$$

 Created by Python create_sdf_string function

 28 31  0  0  0  0  0  0  0  0999 V2000
    0.7639   -8.7792   15.2662 O   0  0  0  0  0  0  0  0  0  0  0  0
    6.5787   -7.9619   17.8576 C   0  0  0  0  0  0  0  0  0  0  0  0
    6.0430   -7.5540   16.6280 C   0  0  0  0  0  0  0  0  0  0  0  0
    1.8362   -4.3926   27.9727 C   0  0  0  0  0  0  0  0  0  0  0  0
    8.5891   -6.7923   17.3604 C   0  0  0  0  0  0  0  0  0  0  0  0
    1.2577   -6.3158   26.4818 C   0  0  0  0  0  0  0  0  0  0  0  0
    8.1297   -6.4060   16.1465 C   0  0  0  0  0  0  0  0  0  0  0  0
    7.8948   -7.5721   18.2083 C   0  0  0  0  0  0  0  0  0  0  0  0
    3.4348   -7.6784   28.9849 C   0  0  0  0  0  0  0  0  0  0  0  0
    3.8849   -8.5482   17.1380 C   0  0  0  0  0  0  0  0  0  0  0  0
    4.2077   -7.4810   15.0280 C   0  0  0  0  0  0  0  0  0  0  0  0
    4.7243   -7.8698   16.2881 C   0  0  0  0  0  0  0  0  0  0  0  0
    0.2956   -8.5686   13.9460 C   0  0  0  0  0  0  0  0  0  0  0  0
    2.6925   -5.2759   28.7178 C   0  0  0  0  0  0  0  0  0  0  0  0
    2.5650   -8.8506   16.7848 C   0  0  0  0  0  0  0  0  0  0  0  0
    4.4665  -10.1816   29.6670 C   0  0  0  0  0  0  0  0  0  0  0  0
    1.0773   -4.9496   26.8705 C   0  0  0  0  0  0  0  0  0  0  0  0
    4.9014  -11.2699   29.9747 O   0  0  0  0  0  0  0  0  0  0  0  0
    2.7596   -6.6219   28.3657 C   0  0  0  0  0  0  0  0  0  0  0  0
    3.1981   -8.8325   28.2353 C   0  0  0  0  0  0  0  0  0  0  0  0
    4.2505   -7.7200   30.0902 C   0  0  0  0  0  0  0  0  0  0  0  0
    2.3934   -8.4807   27.2203 N   0  0  0  0  0  0  0  0  0  0  0  0
    2.8766   -7.7920   14.6600 C   0  0  0  0  0  0  0  0  0  0  0  0
    6.8233   -6.7953   15.7417 C   0  0  0  0  0  0  0  0  0  0  0  0
    4.7591   -9.0201   30.5027 C   0  0  0  0  0  0  0  0  0  0  0  0
    2.0895   -7.1015   27.2910 C   0  0  0  0  0  0  0  0  0  0  0  0
    2.1055   -8.4578   15.5718 C   0  0  0  0  0  0  0  0  0  0  0  0
    3.7164  -10.0120   28.5133 N   0  0  0  0  0  0  0  0  0  0  0  0
  1 13  1  0
  1 27  1  0
  2  3  4  0
  2  8  4  0
  3 12  1  0
  3 24  4  0
  4 14  1  0
  4 17  1  0
  5  7  4  0
  5  8  4  0
  6 17  1  0
  6 26  1  0
  7 24  4  0
  9 19  4  0
  9 20  4  0
  9 21  4  0
 10 12  4  0
 10 15  4  0
 11 12  4  0
 11 23  4  0
 14 19  1  0
 15 27  4  0
 16 18  2  0
 16 25  4  0
 16 28  4  0
 19 26  4  0
 20 22  4  0
 20 28  4  0
 21 25  4  0
 22 26  4  0
 23 27  4  0
M  END
$$$$

 Created by Python create_sdf_string function

 28 47  0  0  0  0  0  0  0  0999 V2000
    0.7240   -8.6082   15.2783 O   0  0  0  0  0  0  0  0  0  0  0  0
    6.6704   -8.1453   17.8471 C   0  0  0  0  0  0  0  0  0  0  0  0
    6.0356   -7.5060   16.6352 C   0  0  0  0  0  0  0  0  0  0  0  0
    1.8258   -4.1671   28.1586 C   0  0  0  0  0  0  0  0  0  0  0  0
    8.6746   -6.7967   17.3518 C   0  0  0  0  0  0  0  0  0  0  0  0
    1.1057   -6.5294   26.5269 C   0  0  0  0  0  0  0  0  0  0  0  0
    8.4483   -6.3833   16.1724 C   0  0  0  0  0  0  0  0  0  0  0  0
    8.0653   -7.7016   18.1382 C   0  0  0  0  0  0  0  0  0  0  0  0
    3.3257   -7.7820   29.0597 C   0  0  0  0  0  0  0  0  0  0  0  0
    3.8367   -8.7062   17.1960 C   0  0  0  0  0  0  0  0  0  0  0  0
    4.4143   -7.3667   15.0652 O   0  0  0  0  0  0  0  0  0  0  0  0
    4.8106   -7.9474   16.3879 C   0  0  0  0  0  0  0  0  0  0  0  0
    0.2159   -8.4669   13.9241 C   0  0  0  0  0  0  0  0  0  0  0  0
    2.8109   -5.3060   28.6866 C   0  0  0  0  0  0  0  0  0  0  0  0
    2.5713   -8.7702   16.8194 C   0  0  0  0  0  0  0  0  0  0  0  0
    4.3902  -10.4469   29.7714 C   0  0  0  0  0  0  0  0  0  0  0  0
    1.0357   -4.9809   26.6775 C   0  0  0  0  0  0  0  0  0  0  0  0
    4.8801  -11.2540   29.7908 O   0  0  0  0  0  0  0  0  0  0  0  0
    2.9490   -6.8922   28.3456 C   0  0  0  0  0  0  0  0  0  0  0  0
    3.4184   -8.6817   28.2917 B   0  0  0  0  0  0  0  0  0  0  0  0
    4.3518   -7.6346   30.1000 C   0  0  0  0  0  0  0  0  0  0  0  0
    2.2697   -8.5105   27.2497 N   0  0  0  0  0  0  0  0  0  0  0  0
    2.9417   -7.7767   14.6859 C   0  0  0  0  0  0  0  0  0  0  0  0
    6.7542   -6.7289   15.8416 C   0  0  0  0  0  0  0  0  0  0  0  0
    4.8010   -9.0467   30.8164 C   0  0  0  0  0  0  0  0  0  0  0  0
    2.0590   -6.9124   26.9693 C   0  0  0  0  0  0  0  0  0  0  0  0
    2.0571   -8.5376   15.4683 C   0  0  0  0  0  0  0  0  0  0  0  0
    3.8121  -10.1038   28.4809 N   0  0  0  0  0  0  0  0  0  0  0  0
  1  7  3  0
  1  8  2  0
  1 13  1  0
  1 27  1  0
  2  3  4  0
  2  8  4  0
  3 11  1  0
  3 12  1  0
  3 24  4  0
  4  7  4  0
  4 12  3  0
  4 14  1  0
  5  7  4  0
  5  8  4  0
  5 12  1  0
  5 19  3  0
  5 27  3  0
  6 17  1  0
  6 26  1  0
  7 14  3  0
  7 24  4  0
  7 26  1  0
  8 16  3  0
  8 25  2  0
  9 19  4  0
  9 20  4  0
  9 21  4  0
  9 27  2  0
 10 12  4  0
 10 15  4  0
 11 12  4  0
 11 23  4  0
 11 25  2  0
 14 19  1  0
 15 22  2  0
 15 27  4  0
 16 18  2  0
 16 25  4  0
 16 28  4  0
 18 25  4  0
 19 26  4  0
 20 22  4  0
 20 25  1  0
 20 28  4  0
 21 25  4  0
 22 26  4  0
 23 27  4  0
M  END
$$$$

 Created by Python create_sdf_string function

 28 31  0  0  0  0  0  0  0  0999 V2000
    0.8061   -8.6623   15.2331 O   0  0  0  0  0  0  0  0  0  0  0  0
    6.6794   -8.0618   17.8453 C   0  0  0  0  0  0  0  0  0  0  0  0
    6.1075   -7.5704   16.6778 C   0  0  0  0  0  0  0  0  0  0  0  0
    1.8037   -4.4085   27.9790 C   0  0  0  0  0  0  0  0  0  0  0  0
    8.7216   -6.8781   17.3618 C   0  0  0  0  0  0  0  0  0  0  0  0
    1.1703   -6.3920   26.5675 C   0  0  0  0  0  0  0  0  0  0  0  0
    8.1917   -6.3473   16.2199 C   0  0  0  0  0  0  0  0  0  0  0  0
    8.0310   -7.7145   18.1656 C   0  0  0  0  0  0  0  0  0  0  0  0
    3.4895   -7.6752   28.9888 C   0  0  0  0  0  0  0  0  0  0  0  0
    3.9158   -8.6054   17.1619 C   0  0  0  0  0  0  0  0  0  0  0  0
    4.2816   -7.4780   15.1045 C   0  0  0  0  0  0  0  0  0  0  0  0
    4.7652   -7.8890   16.3283 C   0  0  0  0  0  0  0  0  0  0  0  0
    0.3369   -8.4365   13.9739 C   0  0  0  0  0  0  0  0  0  0  0  0
    2.7798   -5.2666   28.6767 C   0  0  0  0  0  0  0  0  0  0  0  0
    2.5788   -8.8632   16.7699 C   0  0  0  0  0  0  0  0  0  0  0  0
    4.4940  -10.1932   29.7023 C   0  0  0  0  0  0  0  0  0  0  0  0
    1.1070   -4.9671   26.8003 C   0  0  0  0  0  0  0  0  0  0  0  0
    4.9061  -11.3081   29.9849 O   0  0  0  0  0  0  0  0  0  0  0  0
    2.8131   -6.6342   28.3589 C   0  0  0  0  0  0  0  0  0  0  0  0
    3.2360   -8.8310   28.2587 C   0  0  0  0  0  0  0  0  0  0  0  0
    4.2271   -7.7768   30.1586 C   0  0  0  0  0  0  0  0  0  0  0  0
    2.4222   -8.4867   27.1954 N   0  0  0  0  0  0  0  0  0  0  0  0
    2.9625   -7.7579   14.7108 C   0  0  0  0  0  0  0  0  0  0  0  0
    6.8758   -6.7193   15.8470 C   0  0  0  0  0  0  0  0  0  0  0  0
    4.7476   -9.0523   30.5670 C   0  0  0  0  0  0  0  0  0  0  0  0
    2.0860   -7.1364   27.3122 C   0  0  0  0  0  0  0  0  0  0  0  0
    2.1448   -8.4079   15.5639 C   0  0  0  0  0  0  0  0  0  0  0  0
    3.7190  -10.0322   28.5966 N   0  0  0  0  0  0  0  0  0  0  0  0
  1 13  1  0
  1 27  1  0
  2  3  4  0
  2  8  4  0
  3 12  1  0
  3 24  4  0
  4 14  1  0
  4 17  1  0
  5  7  4  0
  5  8  4  0
  6 17  1  0
  6 26  1  0
  7 24  4  0
  9 19  4  0
  9 20  4  0
  9 21  4  0
 10 12  4  0
 10 15  4  0
 11 12  4  0
 11 23  4  0
 14 19  1  0
 15 27  4  0
 16 18  2  0
 16 25  4  0
 16 28  4  0
 19 26  4  0
 20 22  4  0
 20 28  4  0
 21 25  4  0
 22 26  4  0
 23 27  4  0
M  END
$$$$

 Created by Python create_sdf_string function

 28 34  0  0  0  0  0  0  0  0999 V2000
    0.9003   -8.7450   15.2540 O   0  0  0  0  0  0  0  0  0  0  0  0
    6.6244   -8.0126   17.8398 C   0  0  0  0  0  0  0  0  0  0  0  0
    6.1425   -7.5289   16.7650 C   0  0  0  0  0  0  0  0  0  0  0  0
    1.9552   -4.4961   28.1174 C   0  0  0  0  0  0  0  0  0  0  0  0
    8.7717   -7.1137   17.3949 C   0  0  0  0  0  0  0  0  0  0  0  0
    1.1763   -6.4960   26.5292 C   0  0  0  0  0  0  0  0  0  0  0  0
    8.1441   -7.7071   18.1380 C   0  0  0  0  0  0  0  0  0  0  0  0
    3.3545   -7.6437   28.8433 C   0  0  0  0  0  0  0  0  0  0  0  0
    3.8161   -8.4836   17.2581 C   0  0  0  0  0  0  0  0  0  0  0  0
    4.3561   -7.5177   15.3677 C   0  0  0  0  0  0  0  0  0  0  0  0
    4.7931   -8.1345   16.2652 C   0  0  0  0  0  0  0  0  0  0  0  0
    0.2889   -8.4288   14.0083 C   0  0  0  0  0  0  0  0  0  0  0  0
    2.8306   -5.3057   28.7495 C   0  0  0  0  0  0  0  0  0  0  0  0
    2.5091   -9.0226   16.7752 C   0  0  0  0  0  0  0  0  0  0  0  0
    4.4860  -10.0430   29.4813 C   0  0  0  0  0  0  0  0  0  0  0  0
    1.1917   -4.9250   26.6595 C   0  0  0  0  0  0  0  0  0  0  0  0
    2.8686   -6.6642   28.3552 N   0  0  0  0  0  0  0  0  0  0  0  0
    3.4024   -8.7872   28.4557 C   0  0  0  0  0  0  0  0  0  0  0  0
    3.8380   -7.7363   29.9047 C   0  0  0  0  0  0  0  0  0  0  0  0
    2.4863   -8.7641   27.1180 N   0  0  0  0  0  0  0  0  0  0  0  0
    2.9925   -7.7815   14.6569 C   0  0  0  0  0  0  0  0  0  0  0  0
    6.8968   -6.6579   15.7506 C   0  0  0  0  0  0  0  0  0  0  0  0
    4.6475   -9.1003   30.7268 C   0  0  0  0  0  0  0  0  0  0  0  0
    1.9004   -7.1122   26.9345 C   0  0  0  0  0  0  0  0  0  0  0  0
    2.0864   -8.2472   15.5494 C   0  0  0  0  0  0  0  0  0  0  0  0
    3.6499  -10.0609   28.6020 N   0  0  0  0  0  0  0  0  0  0  0  0
    8.0466   -6.4910   16.0931 He  0  0  0  0  0  0  0  0  0  0  0  0
    4.8572  -11.2988   30.0500 He  0  0  0  0  0  0  0  0  0  0  0  0
  1  6  2  0
  1 11  1  0
  1 12  1  0
  1 25  1  0
  2  3  4  0
  2  7  4  0
  2 15  3  0
  3 11  1  0
  3 22  4  0
  4 13  1  0
  4 16  1  0
  5  7  4  0
  6 16  1  0
  6 24  1  0
  6 26  2  0
  8 14  2  0
  8 18  4  0
  8 19  4  0
  9 11  4  0
  9 14  4  0
 10 11  4  0
 12 26  1  0
 13 14  1  0
 13 17  1  0
 14 25  4  0
 15 26  4  0
 17 24  4  0
 18 20  4  0
 18 26  4  0
 19 23  4  0
 20 24  4  0
 21 24  1  0
 21 25  4  0
 21 26  3  0
M  END
$$$$

 Created by Python create_sdf_string function

 28 31  0  0  0  0  0  0  0  0999 V2000
    0.8303   -8.7235   15.2492 O   0  0  0  0  0  0  0  0  0  0  0  0
    6.6582   -8.0591   17.8781 C   0  0  0  0  0  0  0  0  0  0  0  0
    6.0869   -7.5729   16.7033 C   0  0  0  0  0  0  0  0  0  0  0  0
    1.8484   -4.4791   27.9693 C   0  0  0  0  0  0  0  0  0  0  0  0
    8.7354   -6.9910   17.3095 C   0  0  0  0  0  0  0  0  0  0  0  0
    1.1693   -6.3676   26.5304 C   0  0  0  0  0  0  0  0  0  0  0  0
    8.2022   -6.4748   16.1846 C   0  0  0  0  0  0  0  0  0  0  0  0
    8.0222   -7.7728   18.1675 C   0  0  0  0  0  0  0  0  0  0  0  0
    3.3714   -7.7192   28.9480 C   0  0  0  0  0  0  0  0  0  0  0  0
    3.9196   -8.6135   17.1639 C   0  0  0  0  0  0  0  0  0  0  0  0
    4.2840   -7.4816   15.1155 C   0  0  0  0  0  0  0  0  0  0  0  0
    4.7783   -7.8812   16.3564 C   0  0  0  0  0  0  0  0  0  0  0  0
    0.3264   -8.4114   14.0267 C   0  0  0  0  0  0  0  0  0  0  0  0
    2.7444   -5.3789   28.6270 C   0  0  0  0  0  0  0  0  0  0  0  0
    2.5876   -8.8652   16.7800 C   0  0  0  0  0  0  0  0  0  0  0  0
    4.4238  -10.1443   29.7310 C   0  0  0  0  0  0  0  0  0  0  0  0
    1.2311   -4.9546   26.7318 C   0  0  0  0  0  0  0  0  0  0  0  0
    4.9353  -11.3249   30.0965 O   0  0  0  0  0  0  0  0  0  0  0  0
    2.7525   -6.7054   28.2886 C   0  0  0  0  0  0  0  0  0  0  0  0
    3.1914   -8.8610   28.1915 C   0  0  0  0  0  0  0  0  0  0  0  0
    4.0839   -7.7583   30.1403 C   0  0  0  0  0  0  0  0  0  0  0  0
    2.3983   -8.5751   27.0815 N   0  0  0  0  0  0  0  0  0  0  0  0
    2.9505   -7.7460   14.7283 C   0  0  0  0  0  0  0  0  0  0  0  0
    6.8825   -6.7572   15.8391 C   0  0  0  0  0  0  0  0  0  0  0  0
    4.6048   -8.9985   30.5538 C   0  0  0  0  0  0  0  0  0  0  0  0
    2.0840   -7.1910   27.2109 C   0  0  0  0  0  0  0  0  0  0  0  0
    2.1573   -8.4319   15.5763 C   0  0  0  0  0  0  0  0  0  0  0  0
    3.7470  -10.0461   28.5645 N   0  0  0  0  0  0  0  0  0  0  0  0
  1 13  1  0
  1 27  1  0
  2  3  4  0
  2  8  4  0
  3 12  1  0
  3 24  4  0
  4 14  1  0
  4 17  1  0
  5  7  4  0
  5  8  4  0
  6 17  1  0
  6 26  1  0
  7 24  4  0
  9 19  4  0
  9 20  4  0
  9 21  4  0
 10 12  4  0
 10 15  4  0
 11 12  4  0
 11 23  4  0
 14 19  1  0
 15 27  4  0
 16 18  1  0
 16 25  4  0
 16 28  4  0
 19 26  4  0
 20 22  4  0
 20 28  4  0
 21 25  4  0
 22 26  4  0
 23 27  4  0
M  END
$$$$

 Created by Python create_sdf_string function

 28 31  0  0  0  0  0  0  0  0999 V2000
    0.9807   -8.8643   15.2570 O   0  0  0  0  0  0  0  0  0  0  0  0
    6.7776   -7.9152   17.7516 C   0  0  0  0  0  0  0  0  0  0  0  0
    6.0770   -7.7461   16.6947 C   0  0  0  0  0  0  0  0  0  0  0  0
    1.8695   -4.4927   27.9403 C   0  0  0  0  0  0  0  0  0  0  0  0
    8.7754   -7.0890   17.2550 C   0  0  0  0  0  0  0  0  0  0  0  0
    1.2418   -6.2373   26.6253 C   0  0  0  0  0  0  0  0  0  0  0  0
    8.1518   -6.4073   16.2725 C   0  0  0  0  0  0  0  0  0  0  0  0
    8.2572   -7.7056   18.0403 C   0  0  0  0  0  0  0  0  0  0  0  0
    3.4902   -7.5543   29.0468 C   0  0  0  0  0  0  0  0  0  0  0  0
    4.0613   -8.7122   17.3067 C   0  0  0  0  0  0  0  0  0  0  0  0
    4.2594   -7.4148   14.8613 C   0  0  0  0  0  0  0  0  0  0  0  0
    2.7858   -5.1649   28.5821 C   0  0  0  0  0  0  0  0  0  0  0  0
    2.8260   -9.0005   16.7317 C   0  0  0  0  0  0  0  0  0  0  0  0
    4.5084  -10.4011   29.8362 C   0  0  0  0  0  0  0  0  0  0  0  0
    1.2657   -4.9114   26.5863 C   0  0  0  0  0  0  0  0  0  0  0  0
    4.9517  -11.3224   30.1857 O   0  0  0  0  0  0  0  0  0  0  0  0
    2.6420   -6.6177   28.6107 C   0  0  0  0  0  0  0  0  0  0  0  0
    3.1052   -8.9205   27.9380 C   0  0  0  0  0  0  0  0  0  0  0  0
    2.5971   -8.7505   26.9572 N   0  0  0  0  0  0  0  0  0  0  0  0
    2.8994   -7.9182   14.7477 C   0  0  0  0  0  0  0  0  0  0  0  0
    6.7364   -6.7202   15.7782 C   0  0  0  0  0  0  0  0  0  0  0  0
    4.6312   -8.9976   30.4223 C   0  0  0  0  0  0  0  0  0  0  0  0
    2.2031   -7.1130   27.0811 C   0  0  0  0  0  0  0  0  0  0  0  0
    2.0526   -8.4044   15.6876 C   0  0  0  0  0  0  0  0  0  0  0  0
    3.9061  -10.0724   28.4673 N   0  0  0  0  0  0  0  0  0  0  0  0
    4.8582   -7.8731   16.4677 He  0  0  0  0  0  0  0  0  0  0  0  0
    0.4858   -8.5329   13.9880 He  0  0  0  0  0  0  0  0  0  0  0  0
    4.0057   -7.7544   30.2028 He  0  0  0  0  0  0  0  0  0  0  0  0
  1 24  1  0
  2  3  4  0
  2  8  4  0
  3 21  4  0
  4 12  1  0
  4 15  1  0
  5  7  4  0
  5  8  4  0
  6 15  1  0
  6 23  1  0
  7 17  4  0
  7 21  4  0
  9 16  4  0
  9 17  4  0
  9 18  4  0
  9 19  4  0
 10 13  4  0
 11 20  4  0
 12 16  4  0
 12 17  1  0
 13 24  4  0
 14 16  1  0
 14 22  4  0
 14 25  4  0
 17 23  4  0
 18 19  4  0
 18 25  4  0
 19 20  4  0
 19 23  4  0
 20 24  4  0
 23 24  3  0
M  END
$$$$

 Created by Python create_sdf_string function

 28 31  0  0  0  0  0  0  0  0999 V2000
    0.9159   -8.8854   15.3461 O   0  0  0  0  0  0  0  0  0  0  0  0
    6.7609   -8.0734   17.8064 C   0  0  0  0  0  0  0  0  0  0  0  0
    6.1407   -7.5674   16.6652 C   0  0  0  0  0  0  0  0  0  0  0  0
    1.8177   -4.4167   27.9119 C   0  0  0  0  0  0  0  0  0  0  0  0
    8.7896   -6.9410   17.2343 C   0  0  0  0  0  0  0  0  0  0  0  0
    1.2244   -6.3581   26.4954 C   0  0  0  0  0  0  0  0  0  0  0  0
    8.2103   -6.4048   16.1416 C   0  0  0  0  0  0  0  0  0  0  0  0
    8.1212   -7.7715   18.0793 C   0  0  0  0  0  0  0  0  0  0  0  0
    3.4008   -7.7101   28.9960 C   0  0  0  0  0  0  0  0  0  0  0  0
    4.0488   -8.6550   17.1697 C   0  0  0  0  0  0  0  0  0  0  0  0
    4.2898   -7.4760   15.0921 C   0  0  0  0  0  0  0  0  0  0  0  0
    4.8269   -7.9154   16.3191 C   0  0  0  0  0  0  0  0  0  0  0  0
    0.4623   -8.5643   14.1004 C   0  0  0  0  0  0  0  0  0  0  0  0
    2.7154   -5.2729   28.6445 C   0  0  0  0  0  0  0  0  0  0  0  0
    2.7204   -8.9538   16.8140 C   0  0  0  0  0  0  0  0  0  0  0  0
    4.4858  -10.1988   29.7081 C   0  0  0  0  0  0  0  0  0  0  0  0
    1.3020   -4.9314   26.6537 C   0  0  0  0  0  0  0  0  0  0  0  0
    4.9271  -11.3166   30.0840 O   0  0  0  0  0  0  0  0  0  0  0  0
    2.7604   -6.6397   28.3386 C   0  0  0  0  0  0  0  0  0  0  0  0
    3.2653   -8.8457   28.1625 C   0  0  0  0  0  0  0  0  0  0  0  0
    4.0787   -7.7974   30.1711 C   0  0  0  0  0  0  0  0  0  0  0  0
    2.5307   -8.4910   27.0784 N   0  0  0  0  0  0  0  0  0  0  0  0
    2.9484   -7.8008   14.7365 C   0  0  0  0  0  0  0  0  0  0  0  0
    6.8688   -6.7018   15.8250 C   0  0  0  0  0  0  0  0  0  0  0  0
    4.6296   -9.0684   30.5410 C   0  0  0  0  0  0  0  0  0  0  0  0
    2.1329   -7.1376   27.2211 C   0  0  0  0  0  0  0  0  0  0  0  0
    2.2286   -8.5497   15.6264 C   0  0  0  0  0  0  0  0  0  0  0  0
    3.8127  -10.0532   28.5135 N   0  0  0  0  0  0  0  0  0  0  0  0
  1 13  1  0
  1 27  1  0
  2  3  4  0
  2  8  4  0
  3 12  1  0
  3 24  4  0
  4 14  1  0
  4 17  1  0
  5  7  4  0
  5  8  4  0
  6 17  1  0
  6 26  1  0
  7 24  4  0
  9 19  4  0
  9 20  4  0
  9 21  4  0
 10 12  4  0
 10 15  4  0
 11 12  4  0
 11 23  4  0
 14 19  1  0
 15 27  4  0
 16 18  1  0
 16 25  4  0
 16 28  4  0
 19 26  4  0
 20 22  4  0
 20 28  4  0
 21 25  4  0
 22 26  4  0
 23 27  4  0
M  END
$$$$

 Created by Python create_sdf_string function

 28 44  0  0  0  0  0  0  0  0999 V2000
    0.9724   -9.0165   15.4015 O   0  0  0  0  0  0  0  0  0  0  0  0
    6.7023   -8.1081   18.0315 C   0  0  0  0  0  0  0  0  0  0  0  0
    6.1016   -7.5691   16.8050 C   0  0  0  0  0  0  0  0  0  0  0  0
    1.6899   -4.3978   27.8411 C   0  0  0  0  0  0  0  0  0  0  0  0
    8.7697   -6.9108   17.2044 C   0  0  0  0  0  0  0  0  0  0  0  0
    1.3917   -6.1016   26.6267 C   0  0  0  0  0  0  0  0  0  0  0  0
    8.1838   -6.4174   16.0688 C   0  0  0  0  0  0  0  0  0  0  0  0
    8.0644   -7.7183   17.9695 C   0  0  0  0  0  0  0  0  0  0  0  0
    3.3613   -7.7298   29.0380 C   0  0  0  0  0  0  0  0  0  0  0  0
    4.1906   -8.5886   17.1806 C   0  0  0  0  0  0  0  0  0  0  0  0
    4.4471   -7.5916   14.9176 C   0  0  0  0  0  0  0  0  0  0  0  0
    4.8467   -7.8700   16.2607 C   0  0  0  0  0  0  0  0  0  0  0  0
    0.2448   -8.5745   14.1706 C   0  0  0  0  0  0  0  0  0  0  0  0
    2.7761   -5.1618   28.4721 C   0  0  0  0  0  0  0  0  0  0  0  0
    2.7043   -8.8935   16.7693 C   0  0  0  0  0  0  0  0  0  0  0  0
    4.4493  -10.1731   29.8010 C   0  0  0  0  0  0  0  0  0  0  0  0
    1.3646   -5.0572   26.6644 C   0  0  0  0  0  0  0  0  0  0  0  0
    4.9315  -11.3181   30.0273 O   0  0  0  0  0  0  0  0  0  0  0  0
    2.9741   -6.6851   28.3023 C   0  0  0  0  0  0  0  0  0  0  0  0
    3.1832   -8.8249   28.2430 C   0  0  0  0  0  0  0  0  0  0  0  0
    3.9765   -7.8054   30.2595 C   0  0  0  0  0  0  0  0  0  0  0  0
    2.5274   -8.5195   27.1569 Cl  0  0  0  0  0  0  0  0  0  0  0  0
    2.8896   -7.8953   14.7310 C   0  0  0  0  0  0  0  0  0  0  0  0
    6.8307   -6.7471   15.8460 F   0  0  0  0  0  0  0  0  0  0  0  0
    4.6534   -9.0325   30.6536 C   0  0  0  0  0  0  0  0  0  0  0  0
    2.0743   -7.3567   27.1352 C   0  0  0  0  0  0  0  0  0  0  0  0
    2.3742   -8.6126   15.6887 C   0  0  0  0  0  0  0  0  0  0  0  0
    3.7774  -10.0537   28.6384 N   0  0  0  0  0  0  0  0  0  0  0  0
  1 13  1  0
  1 27  1  0
  2  8  4  0
  2 28  2  0
  3 12  1  0
  3 17  4  0
  3 24  4  0
  4 14  1  0
  4 17  1  0
  4 22  2  0
  5  7  4  0
  5  8  4  0
  5 25  3  0
  6 15  1  0
  6 17  1  0
  6 26  1  0
  7 24  4  0
  8 18  3  0
  9 19  4  0
  9 20  4  0
  9 21  4  0
 10 12  4  0
 10 15  4  0
 10 24  4  0
 11 12  4  0
 11 23  4  0
 11 27  3  0
 12 26  4  0
 13 28  3  0
 14 18  3  0
 14 19  1  0
 14 21  2  0
 15 27  4  0
 16 18  1  0
 16 25  4  0
 16 28  4  0
 19 26  4  0
 20 22  4  0
 20 28  4  0
 21 25  4  0
 21 26  1  0
 22 26  4  0
 23 25  3  0
 23 27  4  0
M  END
$$$$

 Created by Python create_sdf_string function

 28 31  0  0  0  0  0  0  0  0999 V2000
    0.9333   -8.9861   15.3619 O   0  0  0  0  0  0  0  0  0  0  0  0
    6.7788   -8.0267   17.8679 C   0  0  0  0  0  0  0  0  0  0  0  0
    6.1813   -7.5590   16.6650 C   0  0  0  0  0  0  0  0  0  0  0  0
    1.7505   -4.4319   27.8761 C   0  0  0  0  0  0  0  0  0  0  0  0
    8.7822   -6.9205   17.2327 C   0  0  0  0  0  0  0  0  0  0  0  0
    1.2938   -6.3726   26.4621 C   0  0  0  0  0  0  0  0  0  0  0  0
    8.1998   -6.4002   16.1148 C   0  0  0  0  0  0  0  0  0  0  0  0
    8.1137   -7.7070   18.1001 C   0  0  0  0  0  0  0  0  0  0  0  0
    3.4057   -7.6940   29.0229 C   0  0  0  0  0  0  0  0  0  0  0  0
    4.0622   -8.6071   17.1801 C   0  0  0  0  0  0  0  0  0  0  0  0
    4.3250   -7.5669   15.0477 C   0  0  0  0  0  0  0  0  0  0  0  0
    4.8587   -7.9172   16.3140 C   0  0  0  0  0  0  0  0  0  0  0  0
    0.3198   -8.5758   14.2097 C   0  0  0  0  0  0  0  0  0  0  0  0
    2.8024   -5.2264   28.5259 C   0  0  0  0  0  0  0  0  0  0  0  0
    2.7438   -8.9505   16.8275 C   0  0  0  0  0  0  0  0  0  0  0  0
    4.4532  -10.1751   29.7867 C   0  0  0  0  0  0  0  0  0  0  0  0
    1.3226   -4.9566   26.5833 C   0  0  0  0  0  0  0  0  0  0  0  0
    4.9485  -11.3144   30.0739 O   0  0  0  0  0  0  0  0  0  0  0  0
    2.8145   -6.6393   28.3186 C   0  0  0  0  0  0  0  0  0  0  0  0
    3.2283   -8.8557   28.2685 C   0  0  0  0  0  0  0  0  0  0  0  0
    4.0582   -7.7832   30.2287 C   0  0  0  0  0  0  0  0  0  0  0  0
    2.4560   -8.5772   27.1368 N   0  0  0  0  0  0  0  0  0  0  0  0
    2.9981   -7.9215   14.7036 C   0  0  0  0  0  0  0  0  0  0  0  0
    6.8838   -6.7251   15.8184 C   0  0  0  0  0  0  0  0  0  0  0  0
    4.6030   -9.0454   30.6411 C   0  0  0  0  0  0  0  0  0  0  0  0
    2.1570   -7.1541   27.2211 C   0  0  0  0  0  0  0  0  0  0  0  0
    2.2628   -8.5938   15.6271 C   0  0  0  0  0  0  0  0  0  0  0  0
    3.7466  -10.0364   28.6345 N   0  0  0  0  0  0  0  0  0  0  0  0
  1 13  1  0
  1 27  1  0
  2  3  4  0
  2  8  4  0
  3 12  1  0
  3 24  4  0
  4 14  1  0
  4 17  1  0
  5  7  4  0
  5  8  4  0
  6 17  1  0
  6 26  1  0
  7 24  4  0
  9 19  4  0
  9 20  4  0
  9 21  4  0
 10 12  4  0
 10 15  4  0
 11 12  4  0
 11 23  4  0
 14 19  1  0
 15 27  4  0
 16 18  1  0
 16 25  4  0
 16 28  4  0
 19 26  4  0
 20 22  4  0
 20 28  4  0
 21 25  4  0
 22 26  4  0
 23 27  4  0
M  END
$$$$

 Created by Python create_sdf_string function

 28 40  0  0  0  0  0  0  0  0999 V2000
    0.8866   -9.0722   15.4151 O   0  0  0  0  0  0  0  0  0  0  0  0
    6.8533   -8.1635   17.9901 C   0  0  0  0  0  0  0  0  0  0  0  0
    6.2924   -7.6517   16.5984 C   0  0  0  0  0  0  0  0  0  0  0  0
    1.6891   -4.4091   28.0215 C   0  0  0  0  0  0  0  0  0  0  0  0
    8.7213   -6.9456   17.1633 C   0  0  0  0  0  0  0  0  0  0  0  0
    1.3700   -6.3434   26.4527 C   0  0  0  0  0  0  0  0  0  0  0  0
    8.1724   -6.4454   16.1235 C   0  0  0  0  0  0  0  0  0  0  0  0
    8.0294   -7.5935   18.1158 C   0  0  0  0  0  0  0  0  0  0  0  0
    3.4585   -7.6609   29.0389 C   0  0  0  0  0  0  0  0  0  0  0  0
    4.0435   -8.5528   17.1943 C   0  0  0  0  0  0  0  0  0  0  0  0
    4.3763   -7.3984   14.9254 C   0  0  0  0  0  0  0  0  0  0  0  0
    4.8902   -7.8231   16.4549 C   0  0  0  0  0  0  0  0  0  0  0  0
    0.1640   -8.5322   14.1153 C   0  0  0  0  0  0  0  0  0  0  0  0
    2.6414   -8.9461   16.7715 C   0  0  0  0  0  0  0  0  0  0  0  0
    4.5167  -10.1669   29.7410 C   0  0  0  0  0  0  0  0  0  0  0  0
    1.3453   -4.9138   26.7276 C   0  0  0  0  0  0  0  0  0  0  0  0
    5.0563  -11.3343   30.0513 O   0  0  0  0  0  0  0  0  0  0  0  0
    2.9028   -6.6869   28.4341 C   0  0  0  0  0  0  0  0  0  0  0  0
    3.2681   -8.7912   28.3147 C   0  0  0  0  0  0  0  0  0  0  0  0
    4.1883   -7.6704   30.2128 C   0  0  0  0  0  0  0  0  0  0  0  0
    2.4756   -8.4008   27.2093 N   0  0  0  0  0  0  0  0  0  0  0  0
    6.9189   -6.7306   15.8246 C   0  0  0  0  0  0  0  0  0  0  0  0
    4.5226   -9.0787   30.6051 C   0  0  0  0  0  0  0  0  0  0  0  0
    2.3555   -7.2339   27.0970 C   0  0  0  0  0  0  0  0  0  0  0  0
    2.1682   -8.6405   15.8062 C   0  0  0  0  0  0  0  0  0  0  0  0
    3.8260   -9.9459   28.6386 N   0  0  0  0  0  0  0  0  0  0  0  0
    2.7494   -5.1212   28.4655 He  0  0  0  0  0  0  0  0  0  0  0  0
    3.0179   -7.9633   14.6983 He  0  0  0  0  0  0  0  0  0  0  0  0
  1  7  1  0
  1 13  1  0
  1 25  3  0
  2  3  4  0
  2  8  4  0
  2 10  4  0
  3 12  1  0
  3 22  4  0
  4  5  3  0
  4 16  1  0
  4 25  2  0
  5  7  4  0
  5  8  4  0
  6  9  4  0
  6 16  1  0
  6 24  1  0
  7 21  1  0
  7 22  4  0
  7 24  4  0
  8 21  2  0
  9 18  4  0
  9 19  4  0
  9 20  4  0
 10 12  4  0
 10 14  4  0
 11 12  4  0
 11 22  3  0
 13 21  3  0
 14 21  4  0
 14 25  4  0
 15 17  1  0
 15 23  4  0
 15 26  4  0
 18 24  4  0
 19 21  4  0
 19 25  2  0
 19 26  4  0
 20 23  4  0
 21 24  4  0
 22 23  4  0
M  END
$$$$

 Created by Python create_sdf_string function

 28 31  0  0  0  0  0  0  0  0999 V2000
    0.9135   -8.9947   15.3447 O   0  0  0  0  0  0  0  0  0  0  0  0
    6.7985   -8.0415   17.8498 C   0  0  0  0  0  0  0  0  0  0  0  0
    6.2046   -7.5610   16.6686 C   0  0  0  0  0  0  0  0  0  0  0  0
    1.6929   -4.4446   28.0012 C   0  0  0  0  0  0  0  0  0  0  0  0
    8.7933   -6.8891   17.2778 C   0  0  0  0  0  0  0  0  0  0  0  0
    1.4138   -6.3572   26.4582 C   0  0  0  0  0  0  0  0  0  0  0  0
    8.2656   -6.4126   16.1223 C   0  0  0  0  0  0  0  0  0  0  0  0
    8.1354   -7.7002   18.1209 C   0  0  0  0  0  0  0  0  0  0  0  0
    3.4790   -7.6411   29.0481 C   0  0  0  0  0  0  0  0  0  0  0  0
    4.0386   -8.5986   17.2036 C   0  0  0  0  0  0  0  0  0  0  0  0
    4.3082   -7.5271   15.0939 C   0  0  0  0  0  0  0  0  0  0  0  0
    4.8715   -7.9018   16.3429 C   0  0  0  0  0  0  0  0  0  0  0  0
    0.2712   -8.5528   14.1898 C   0  0  0  0  0  0  0  0  0  0  0  0
    2.7775   -5.1916   28.5759 C   0  0  0  0  0  0  0  0  0  0  0  0
    2.7267   -8.9384   16.8596 C   0  0  0  0  0  0  0  0  0  0  0  0
    4.4854  -10.1407   29.7646 C   0  0  0  0  0  0  0  0  0  0  0  0
    1.3104   -4.8978   26.6513 C   0  0  0  0  0  0  0  0  0  0  0  0
    4.9999  -11.2735   30.0406 O   0  0  0  0  0  0  0  0  0  0  0  0
    2.8689   -6.5800   28.3622 C   0  0  0  0  0  0  0  0  0  0  0  0
    3.2723   -8.7626   28.2686 C   0  0  0  0  0  0  0  0  0  0  0  0
    4.1510   -7.7631   30.2429 C   0  0  0  0  0  0  0  0  0  0  0  0
    2.5501   -8.4453   27.2118 N   0  0  0  0  0  0  0  0  0  0  0  0
    2.9920   -7.8868   14.7590 C   0  0  0  0  0  0  0  0  0  0  0  0
    6.9414   -6.7442   15.7740 C   0  0  0  0  0  0  0  0  0  0  0  0
    4.6578   -9.0449   30.6289 C   0  0  0  0  0  0  0  0  0  0  0  0
    2.2475   -7.1164   27.2632 C   0  0  0  0  0  0  0  0  0  0  0  0
    2.2373   -8.5920   15.6450 C   0  0  0  0  0  0  0  0  0  0  0  0
    3.7711   -9.9720   28.6167 N   0  0  0  0  0  0  0  0  0  0  0  0
  1 13  1  0
  1 27  1  0
  2  3  4  0
  2  8  4  0
  3 12  1  0
  3 24  4  0
  4 14  1  0
  4 17  1  0
  5  7  4  0
  5  8  4  0
  6 17  1  0
  6 26  1  0
  7 24  4  0
  9 19  4  0
  9 20  4  0
  9 21  4  0
 10 12  4  0
 10 15  4  0
 11 12  4  0
 11 23  4  0
 14 19  1  0
 15 27  4  0
 16 18  1  0
 16 25  4  0
 16 28  4  0
 19 26  4  0
 20 22  4  0
 20 28  4  0
 21 25  4  0
 22 26  4  0
 23 27  4  0
M  END
$$$$

 Created by Python create_sdf_string function

 28 44  0  0  0  0  0  0  0  0999 V2000
    0.9520   -8.9014   15.3368 O   0  0  0  0  0  0  0  0  0  0  0  0
    6.8427   -8.0091   17.8033 C   0  0  0  0  0  0  0  0  0  0  0  0
    6.1263   -7.5725   16.7026 C   0  0  0  0  0  0  0  0  0  0  0  0
    1.4818   -4.4761   28.0314 C   0  0  0  0  0  0  0  0  0  0  0  0
    8.7512   -6.9051   17.2861 C   0  0  0  0  0  0  0  0  0  0  0  0
    1.3646   -6.2366   26.6051 C   0  0  0  0  0  0  0  0  0  0  0  0
    8.3020   -6.3904   15.9983 C   0  0  0  0  0  0  0  0  0  0  0  0
    8.1655   -7.6638   18.0373 C   0  0  0  0  0  0  0  0  0  0  0  0
    3.5219   -7.7567   29.2619 C   0  0  0  0  0  0  0  0  0  0  0  0
    4.3284   -7.4961   15.1303 C   0  0  0  0  0  0  0  0  0  0  0  0
    5.0300   -7.9137   16.3344 C   0  0  0  0  0  0  0  0  0  0  0  0
    0.2676   -8.4310   14.1482 C   0  0  0  0  0  0  0  0  0  0  0  0
    2.8363   -5.2302   28.5183 C   0  0  0  0  0  0  0  0  0  0  0  0
    2.6638   -8.9024   16.9144 C   0  0  0  0  0  0  0  0  0  0  0  0
    4.4140  -10.1952   29.7540 C   0  0  0  0  0  0  0  0  0  0  0  0
    1.3351   -4.8285   26.7157 C   0  0  0  0  0  0  0  0  0  0  0  0
    4.9849  -11.2311   30.0954 S   0  0  0  0  0  0  0  0  0  0  0  0
    2.6658   -6.5844   28.4081 C   0  0  0  0  0  0  0  0  0  0  0  0
    3.2895   -8.9524   28.3150 C   0  0  0  0  0  0  0  0  0  0  0  0
    4.0091   -7.7758   30.2095 C   0  0  0  0  0  0  0  0  0  0  0  0
    2.4448   -8.5825   26.9567 N   0  0  0  0  0  0  0  0  0  0  0  0
    3.0157   -7.9076   14.6846 C   0  0  0  0  0  0  0  0  0  0  0  0
    6.9483   -6.7234   15.7732 C   0  0  0  0  0  0  0  0  0  0  0  0
    4.5819   -9.0444   30.6060 C   0  0  0  0  0  0  0  0  0  0  0  0
    2.1834   -7.0970   27.0613 C   0  0  0  0  0  0  0  0  0  0  0  0
    2.2859   -8.4899   15.5123 C   0  0  0  0  0  0  0  0  0  0  0  0
    3.8431   -9.9149   28.6038 N   0  0  0  0  0  0  0  0  0  0  0  0
    4.0929   -8.5768   17.2242 He  0  0  0  0  0  0  0  0  0  0  0  0
  1  5  4  0
  1 12  1  0
  1 13  2  0
  1 26  1  0
  2  3  4  0
  2  8  4  0
  2 13  1  0
  2 18  2  0
  3 11  1  0
  3 23  4  0
  4 13  4  0
  4 16  1  0
  4 21  1  0
  4 24  1  0
  5  7  4  0
  5  8  1  0
  5 19  2  0
  6 16  1  0
  6 25  1  0
  7 13  1  0
  7 20  1  0
  7 23  4  0
  8 23  2  0
  9 18  4  0
  9 19  4  0
  9 20  4  0
 10 11  4  0
 10 22  4  0
 11 19  1  0
 13 18  1  0
 14 26  4  0
 15 17  1  0
 15 22  3  0
 15 24  4  0
 15 25  1  0
 15 27  4  0
 18 25  4  0
 19 21  4  0
 19 27  4  0
 20 24  4  0
 21 22  3  0
 21 24  3  0
 21 25  4  0
 22 26  4  0
M  END
$$$$

 Created by Python create_sdf_string function

 28 31  0  0  0  0  0  0  0  0999 V2000
    0.9479   -8.8815   15.3224 O   0  0  0  0  0  0  0  0  0  0  0  0
    6.8093   -8.0054   17.8020 C   0  0  0  0  0  0  0  0  0  0  0  0
    6.2274   -7.5402   16.6334 C   0  0  0  0  0  0  0  0  0  0  0  0
    1.6085   -4.4768   28.0457 C   0  0  0  0  0  0  0  0  0  0  0  0
    8.8457   -6.8745   17.2431 C   0  0  0  0  0  0  0  0  0  0  0  0
    1.3308   -6.3210   26.4367 C   0  0  0  0  0  0  0  0  0  0  0  0
    8.3077   -6.3737   16.0883 C   0  0  0  0  0  0  0  0  0  0  0  0
    8.1626   -7.6766   18.0983 C   0  0  0  0  0  0  0  0  0  0  0  0
    3.3910   -7.6660   29.0474 C   0  0  0  0  0  0  0  0  0  0  0  0
    4.0857   -8.5711   17.1872 C   0  0  0  0  0  0  0  0  0  0  0  0
    4.3568   -7.5189   15.0631 C   0  0  0  0  0  0  0  0  0  0  0  0
    4.8984   -7.8771   16.3148 C   0  0  0  0  0  0  0  0  0  0  0  0
    0.3291   -8.4481   14.1777 C   0  0  0  0  0  0  0  0  0  0  0  0
    2.7152   -5.2402   28.6621 C   0  0  0  0  0  0  0  0  0  0  0  0
    2.7619   -8.8922   16.8376 C   0  0  0  0  0  0  0  0  0  0  0  0
    4.4617  -10.1400   29.7685 C   0  0  0  0  0  0  0  0  0  0  0  0
    1.2840   -4.8897   26.6834 C   0  0  0  0  0  0  0  0  0  0  0  0
    4.9741  -11.3142   30.1205 O   0  0  0  0  0  0  0  0  0  0  0  0
    2.7752   -6.6027   28.3769 C   0  0  0  0  0  0  0  0  0  0  0  0
    3.2470   -8.8042   28.2457 C   0  0  0  0  0  0  0  0  0  0  0  0
    4.0391   -7.7785   30.2508 C   0  0  0  0  0  0  0  0  0  0  0  0
    2.4953   -8.5018   27.0903 N   0  0  0  0  0  0  0  0  0  0  0  0
    3.0254   -7.8523   14.7216 C   0  0  0  0  0  0  0  0  0  0  0  0
    6.9727   -6.7160   15.7666 C   0  0  0  0  0  0  0  0  0  0  0  0
    4.5878   -9.0300   30.6301 C   0  0  0  0  0  0  0  0  0  0  0  0
    2.1486   -7.0930   27.2375 C   0  0  0  0  0  0  0  0  0  0  0  0
    2.2770   -8.5223   15.6227 C   0  0  0  0  0  0  0  0  0  0  0  0
    3.7775   -9.9947   28.6071 N   0  0  0  0  0  0  0  0  0  0  0  0
  1 13  1  0
  1 27  1  0
  2  3  4  0
  2  8  4  0
  3 12  1  0
  3 24  4  0
  4 14  1  0
  4 17  1  0
  5  7  4  0
  5  8  4  0
  6 17  1  0
  6 26  1  0
  7 24  4  0
  9 19  4  0
  9 20  4  0
  9 21  4  0
 10 12  4  0
 10 15  4  0
 11 12  4  0
 11 23  4  0
 14 19  1  0
 15 27  4  0
 16 18  1  0
 16 25  4  0
 16 28  4  0
 19 26  4  0
 20 22  4  0
 20 28  4  0
 21 25  4  0
 22 26  4  0
 23 27  4  0
M  END
$$$$

 Created by Python create_sdf_string function

 28 40  0  0  0  0  0  0  0  0999 V2000
    0.9269   -8.8704   15.3631 S   0  0  0  0  0  0  0  0  0  0  0  0
    6.7094   -8.0333   17.7678 C   0  0  0  0  0  0  0  0  0  0  0  0
    6.1811   -7.5396   16.6678 C   0  0  0  0  0  0  0  0  0  0  0  0
    1.6534   -4.5406   28.0483 C   0  0  0  0  0  0  0  0  0  0  0  0
    8.8008   -6.8920   17.2981 C   0  0  0  0  0  0  0  0  0  0  0  0
    1.3617   -6.4338   26.4439 C   0  0  0  0  0  0  0  0  0  0  0  0
    8.2714   -6.3744   16.0670 C   0  0  0  0  0  0  0  0  0  0  0  0
    8.1626   -7.6759   18.0460 C   0  0  0  0  0  0  0  0  0  0  0  0
    3.3731   -7.5882   29.0008 C   0  0  0  0  0  0  0  0  0  0  0  0
    4.0031   -8.5914   17.1731 C   0  0  0  0  0  0  0  0  0  0  0  0
    4.3012   -7.5096   15.0881 C   0  0  0  0  0  0  0  0  0  0  0  0
    4.8637   -7.8228   16.2197 C   0  0  0  0  0  0  0  0  0  0  0  0
    0.3673   -8.3514   14.2538 C   0  0  0  0  0  0  0  0  0  0  0  0
    2.7342   -5.1721   28.6232 C   0  0  0  0  0  0  0  0  0  0  0  0
    2.8178   -8.7902   16.7534 C   0  0  0  0  0  0  0  0  0  0  0  0
    4.4928  -10.0379   29.7694 C   0  0  0  0  0  0  0  0  0  0  0  0
    1.3337   -4.8601   26.7290 C   0  0  0  0  0  0  0  0  0  0  0  0
    4.9782  -11.2516   30.1937 O   0  0  0  0  0  0  0  0  0  0  0  0
    2.8165   -6.5712   28.4291 C   0  0  0  0  0  0  0  0  0  0  0  0
    3.1875   -8.7976   28.2312 C   0  0  0  0  0  0  0  0  0  0  0  0
    4.0810   -7.6707   30.2106 C   0  0  0  0  0  0  0  0  0  0  0  0
    3.0523   -7.8048   14.6809 C   0  0  0  0  0  0  0  0  0  0  0  0
    6.9958   -6.6629   15.7587 C   0  0  0  0  0  0  0  0  0  0  0  0
    4.4608   -9.0920   30.5444 C   0  0  0  0  0  0  0  0  0  0  0  0
    2.2221   -7.2064   27.3628 C   0  0  0  0  0  0  0  0  0  0  0  0
    2.3240   -8.4706   15.6891 C   0  0  0  0  0  0  0  0  0  0  0  0
    3.6924   -9.9810   28.6887 N   0  0  0  0  0  0  0  0  0  0  0  0
    2.5689   -8.4818   27.1935 He  0  0  0  0  0  0  0  0  0  0  0  0
  1 13  1  0
  1 26  1  0
  2  3  4  0
  2  8  4  0
  2 18  4  0
  3 12  1  0
  3 23  4  0
  3 26  2  0
  4  6  1  0
  4 13  4  0
  4 14  1  0
  4 17  4  0
  5  7  4  0
  5  8  4  0
  5 16  2  0
  6 17  1  0
  6 25  1  0
  6 27  4  0
  7  9  4  0
  7 10  4  0
  7 19  2  0
  7 23  4  0
  9 19  4  0
  9 20  4  0
  9 21  4  0
 10 12  4  0
 10 15  4  0
 11 12  4  0
 11 22  4  0
 14 19  1  0
 15 26  4  0
 16 18  1  0
 16 24  4  0
 16 27  4  0
 18 19  4  0
 19 21  2  0
 19 25  4  0
 20 27  4  0
 21 24  4  0
 22 26  4  0
M  END
$$$$

 Created by Python create_sdf_string function

 28 31  0  0  0  0  0  0  0  0999 V2000
    0.9242   -8.8525   15.3598 O   0  0  0  0  0  0  0  0  0  0  0  0
    6.7960   -8.0120   17.7928 C   0  0  0  0  0  0  0  0  0  0  0  0
    6.2127   -7.5188   16.6134 C   0  0  0  0  0  0  0  0  0  0  0  0
    1.6473   -4.4554   28.0312 C   0  0  0  0  0  0  0  0  0  0  0  0
    8.8297   -6.8685   17.2487 C   0  0  0  0  0  0  0  0  0  0  0  0
    1.3588   -6.3594   26.4647 C   0  0  0  0  0  0  0  0  0  0  0  0
    8.2858   -6.3567   16.1048 C   0  0  0  0  0  0  0  0  0  0  0  0
    8.1277   -7.6872   18.0800 C   0  0  0  0  0  0  0  0  0  0  0  0
    3.3996   -7.6506   29.0399 C   0  0  0  0  0  0  0  0  0  0  0  0
    4.0901   -8.5451   17.1511 C   0  0  0  0  0  0  0  0  0  0  0  0
    4.3470   -7.4611   15.0382 C   0  0  0  0  0  0  0  0  0  0  0  0
    4.8983   -7.8385   16.2740 C   0  0  0  0  0  0  0  0  0  0  0  0
    0.3348   -8.3539   14.2122 C   0  0  0  0  0  0  0  0  0  0  0  0
    2.7250   -5.2301   28.6855 C   0  0  0  0  0  0  0  0  0  0  0  0
    2.7828   -8.8508   16.8085 C   0  0  0  0  0  0  0  0  0  0  0  0
    4.4326  -10.1144   29.8151 C   0  0  0  0  0  0  0  0  0  0  0  0
    1.3074   -4.8902   26.7051 C   0  0  0  0  0  0  0  0  0  0  0  0
    4.9624  -11.2503   30.1394 O   0  0  0  0  0  0  0  0  0  0  0  0
    2.7834   -6.5955   28.3830 C   0  0  0  0  0  0  0  0  0  0  0  0
    3.2268   -8.8076   28.2693 C   0  0  0  0  0  0  0  0  0  0  0  0
    4.0783   -7.7303   30.2365 C   0  0  0  0  0  0  0  0  0  0  0  0
    2.5002   -8.4780   27.2072 N   0  0  0  0  0  0  0  0  0  0  0  0
    3.0287   -7.7895   14.7080 C   0  0  0  0  0  0  0  0  0  0  0  0
    6.9718   -6.6839   15.7689 C   0  0  0  0  0  0  0  0  0  0  0  0
    4.5852   -8.9898   30.6409 C   0  0  0  0  0  0  0  0  0  0  0  0
    2.1729   -7.1150   27.2748 C   0  0  0  0  0  0  0  0  0  0  0  0
    2.2736   -8.4848   15.6274 C   0  0  0  0  0  0  0  0  0  0  0  0
    3.7383   -9.9821   28.6389 N   0  0  0  0  0  0  0  0  0  0  0  0
  1 13  1  0
  1 27  1  0
  2  3  4  0
  2  8  4  0
  3 12  1  0
  3 24  4  0
  4 14  1  0
  4 17  1  0
  5  7  4  0
  5  8  4  0
  6 17  1  0
  6 26  1  0
  7 24  4  0
  9 19  4  0
  9 20  4  0
  9 21  4  0
 10 12  4  0
 10 15  4  0
 11 12  4  0
 11 23  4  0
 14 19  1  0
 15 27  4  0
 16 18  1  0
 16 25  4  0
 16 28  4  0
 19 26  4  0
 20 22  4  0
 20 28  4  0
 21 25  4  0
 22 26  4  0
 23 27  4  0
M  END
$$$$

 Created by Python create_sdf_string function

 28 37  0  0  0  0  0  0  0  0999 V2000
    0.8897   -8.9057   15.3272 O   0  0  0  0  0  0  0  0  0  0  0  0
    6.8704   -8.0097   17.7191 C   0  0  0  0  0  0  0  0  0  0  0  0
    6.2405   -7.5511   16.6950 C   0  0  0  0  0  0  0  0  0  0  0  0
    1.6329   -4.4539   28.0064 C   0  0  0  0  0  0  0  0  0  0  0  0
    8.8196   -6.9375   17.1617 C   0  0  0  0  0  0  0  0  0  0  0  0
    1.2890   -6.4835   26.5059 C   0  0  0  0  0  0  0  0  0  0  0  0
    8.2231   -6.3883   16.1152 C   0  0  0  0  0  0  0  0  0  0  0  0
    8.2476   -7.6631   18.0560 C   0  0  0  0  0  0  0  0  0  0  0  0
    4.1057   -8.6125   17.1350 C   0  0  0  0  0  0  0  0  0  0  0  0
    4.3221   -7.4991   15.0380 C   0  0  0  0  0  0  0  0  0  0  0  0
    4.8459   -7.7676   16.3572 C   0  0  0  0  0  0  0  0  0  0  0  0
    2.7938   -5.3365   28.6264 C   0  0  0  0  0  0  0  0  0  0  0  0
    2.8388   -8.9376   16.7995 C   0  0  0  0  0  0  0  0  0  0  0  0
    4.4627  -10.0576   29.8201 C   0  0  0  0  0  0  0  0  0  0  0  0
    1.1862   -4.9289   26.7632 C   0  0  0  0  0  0  0  0  0  0  0  0
    4.9477  -11.2607   30.1024 O   0  0  0  0  0  0  0  0  0  0  0  0
    2.7207   -6.5992   28.3002 C   0  0  0  0  0  0  0  0  0  0  0  0
    3.1939   -8.7980   28.2988 C   0  0  0  0  0  0  0  0  0  0  0  0
    4.1352   -7.6358   30.2310 C   0  0  0  0  0  0  0  0  0  0  0  0
    2.5114   -8.4145   27.2109 C   0  0  0  0  0  0  0  0  0  0  0  0
    3.0424   -7.8792   14.7171 C   0  0  0  0  0  0  0  0  0  0  0  0
    6.9311   -6.7526   15.7716 C   0  0  0  0  0  0  0  0  0  0  0  0
    4.6490   -9.0413   30.5635 C   0  0  0  0  0  0  0  0  0  0  0  0
    2.2981   -7.2288   27.2877 C   0  0  0  0  0  0  0  0  0  0  0  0
    2.3374   -8.5841   15.5641 C   0  0  0  0  0  0  0  0  0  0  0  0
    3.6591   -9.9667   28.6600 N   0  0  0  0  0  0  0  0  0  0  0  0
    3.4765   -7.5644   29.0210 He  0  0  0  0  0  0  0  0  0  0  0  0
    0.3691   -8.3979   14.3171 He  0  0  0  0  0  0  0  0  0  0  0  0
  1  2  4  0
  1 25  1  0
  2  3  4  0
  2  8  4  0
  3 11  1  0
  3 14  2  0
  3 22  4  0
  4 12  1  0
  4 15  1  0
  4 23  3  0
  5  7  4  0
  5  8  4  0
  6 15  1  0
  6 24  1  0
  7 15  3  0
  7 22  4  0
  7 24  3  0
  8 23  2  0
  9 11  4  0
  9 13  4  0
 10 11  4  0
 10 21  4  0
 10 25  4  0
 11 16  2  0
 12 17  1  0
 13 16  2  0
 13 25  4  0
 14 16  1  0
 14 23  4  0
 14 26  4  0
 17 24  4  0
 18 20  4  0
 18 24  1  0
 18 26  4  0
 19 23  4  0
 20 24  4  0
 21 25  4  0
M  END
$$$$

 Created by Python create_sdf_string function

 28 31  0  0  0  0  0  0  0  0999 V2000
    0.9731   -8.9198   15.3542 O   0  0  0  0  0  0  0  0  0  0  0  0
    6.8659   -8.0091   17.7787 C   0  0  0  0  0  0  0  0  0  0  0  0
    6.2359   -7.5284   16.6291 C   0  0  0  0  0  0  0  0  0  0  0  0
    1.6581   -4.4447   28.0362 C   0  0  0  0  0  0  0  0  0  0  0  0
    8.8736   -6.8863   17.1835 C   0  0  0  0  0  0  0  0  0  0  0  0
    1.2801   -6.4045   26.4991 C   0  0  0  0  0  0  0  0  0  0  0  0
    8.2844   -6.3757   16.0751 C   0  0  0  0  0  0  0  0  0  0  0  0
    8.2013   -7.7027   18.0485 C   0  0  0  0  0  0  0  0  0  0  0  0
    3.4459   -7.6146   29.0590 C   0  0  0  0  0  0  0  0  0  0  0  0
    4.1092   -8.5961   17.1645 C   0  0  0  0  0  0  0  0  0  0  0  0
    4.3283   -7.4808   15.0806 C   0  0  0  0  0  0  0  0  0  0  0  0
    4.9049   -7.8719   16.3063 C   0  0  0  0  0  0  0  0  0  0  0  0
    0.4043   -8.3846   14.2643 C   0  0  0  0  0  0  0  0  0  0  0  0
    2.7573   -5.2408   28.6517 C   0  0  0  0  0  0  0  0  0  0  0  0
    2.8214   -8.9539   16.8161 C   0  0  0  0  0  0  0  0  0  0  0  0
    4.4409  -10.0909   29.7952 C   0  0  0  0  0  0  0  0  0  0  0  0
    1.1832   -4.9514   26.7277 C   0  0  0  0  0  0  0  0  0  0  0  0
    4.9251  -11.2436   30.0957 O   0  0  0  0  0  0  0  0  0  0  0  0
    2.7963   -6.5786   28.3741 C   0  0  0  0  0  0  0  0  0  0  0  0
    3.2275   -8.7839   28.2946 C   0  0  0  0  0  0  0  0  0  0  0  0
    4.1633   -7.7060   30.2109 C   0  0  0  0  0  0  0  0  0  0  0  0
    2.4856   -8.4916   27.2041 N   0  0  0  0  0  0  0  0  0  0  0  0
    3.0298   -7.8566   14.7379 C   0  0  0  0  0  0  0  0  0  0  0  0
    6.9510   -6.6879   15.7633 C   0  0  0  0  0  0  0  0  0  0  0  0
    4.6761   -8.9653   30.6127 C   0  0  0  0  0  0  0  0  0  0  0  0
    2.1638   -7.1285   27.2762 C   0  0  0  0  0  0  0  0  0  0  0  0
    2.3071   -8.5688   15.6298 C   0  0  0  0  0  0  0  0  0  0  0  0
    3.6935   -9.9525   28.6561 N   0  0  0  0  0  0  0  0  0  0  0  0
  1 13  1  0
  1 27  1  0
  2  3  4  0
  2  8  4  0
  3 12  1  0
  3 24  4  0
  4 14  1  0
  4 17  1  0
  5  7  4  0
  5  8  4  0
  6 17  1  0
  6 26  1  0
  7 24  4  0
  9 19  4  0
  9 20  4  0
  9 21  4  0
 10 12  4  0
 10 15  4  0
 11 12  4  0
 11 23  4  0
 14 19  1  0
 15 27  4  0
 16 18  1  0
 16 25  4  0
 16 28  4  0
 19 26  4  0
 20 22  4  0
 20 28  4  0
 21 25  4  0
 22 26  4  0
 23 27  4  0
M  END
$$$$

 Created by Python create_sdf_string function

 28 39  0  0  0  0  0  0  0  0999 V2000
    0.9476   -8.9012   15.4292 O   0  0  0  0  0  0  0  0  0  0  0  0
    6.8714   -7.9589   17.8675 C   0  0  0  0  0  0  0  0  0  0  0  0
    6.2179   -7.4580   16.5947 C   0  0  0  0  0  0  0  0  0  0  0  0
    1.6774   -4.4770   28.0866 C   0  0  0  0  0  0  0  0  0  0  0  0
    8.9768   -6.9497   17.2451 C   0  0  0  0  0  0  0  0  0  0  0  0
    1.2355   -6.3611   26.4902 C   0  0  0  0  0  0  0  0  0  0  0  0
    8.3457   -6.4338   16.1748 C   0  0  0  0  0  0  0  0  0  0  0  0
    8.1397   -7.7117   18.0927 C   0  0  0  0  0  0  0  0  0  0  0  0
    3.4697   -7.6460   29.1187 C   0  0  0  0  0  0  0  0  0  0  0  0
    4.1541   -8.5447   17.1612 C   0  0  0  0  0  0  0  0  0  0  0  0
    4.4643   -7.4529   15.0726 C   0  0  0  0  0  0  0  0  0  0  0  0
    4.9218   -7.9174   16.2718 C   0  0  0  0  0  0  0  0  0  0  0  0
    0.3491   -8.3929   14.3219 C   0  0  0  0  0  0  0  0  0  0  0  0
    2.8097   -5.1275   28.7219 C   0  0  0  0  0  0  0  0  0  0  0  0
    2.7707   -8.8888   16.7325 C   0  0  0  0  0  0  0  0  0  0  0  0
    4.5055  -10.0798   29.8058 C   0  0  0  0  0  0  0  0  0  0  0  0
    1.1530   -4.9153   26.6607 C   0  0  0  0  0  0  0  0  0  0  0  0
    4.9960  -11.2849   30.0896 O   0  0  0  0  0  0  0  0  0  0  0  0
    2.8042   -6.7212   28.2788 C   0  0  0  0  0  0  0  0  0  0  0  0
    3.2230   -8.8622   28.2120 C   0  0  0  0  0  0  0  0  0  0  0  0
    4.2342   -7.5981   30.0950 C   0  0  0  0  0  0  0  0  0  0  0  0
    2.5072   -8.5240   27.1225 N   0  0  0  0  0  0  0  0  0  0  0  0
    2.9282   -7.7759   14.7763 C   0  0  0  0  0  0  0  0  0  0  0  0
    6.9260   -6.6713   15.7473 C   0  0  0  0  0  0  0  0  0  0  0  0
    4.6462   -8.8671   30.6541 C   0  0  0  0  0  0  0  0  0  0  0  0
    2.2105   -7.0670   27.2534 C   0  0  0  0  0  0  0  0  0  0  0  0
    2.2702   -8.7360   15.6365 C   0  0  0  0  0  0  0  0  0  0  0  0
    3.7214   -9.8334   28.5847 N   0  0  0  0  0  0  0  0  0  0  0  0
  1 13  1  0
  2  3  4  0
  2  8  4  0
  3  7  3  0
  3 12  1  0
  3 18  3  0
  3 24  4  0
  4 14  1  0
  4 17  1  0
  5  7  4  0
  5  8  4  0
  5 15  4  0
  6 17  1  0
  6 26  1  0
  7 24  4  0
  8 23  3  0
  9 19  4  0
  9 20  4  0
  9 21  4  0
 10 12  3  0
 10 15  4  0
 10 20  2  0
 11 12  4  0
 11 23  4  0
 13 25  4  0
 14 16  4  0
 14 19  1  0
 15 27  4  0
 16 18  1  0
 16 25  4  0
 16 28  4  0
 19 24  4  0
 19 26  4  0
 20 22  4  0
 20 28  4  0
 21 25  4  0
 21 28  2  0
 22 26  4  0
 23 27  4  0
M  END
$$$$

 Created by Python create_sdf_string function

 28 31  0  0  0  0  0  0  0  0999 V2000
    0.9835   -8.9236   15.4076 O   0  0  0  0  0  0  0  0  0  0  0  0
    6.8514   -7.9787   17.8313 C   0  0  0  0  0  0  0  0  0  0  0  0
    6.2717   -7.5128   16.6547 C   0  0  0  0  0  0  0  0  0  0  0  0
    1.6456   -4.4440   28.0531 C   0  0  0  0  0  0  0  0  0  0  0  0
    8.9165   -6.9251   17.2560 C   0  0  0  0  0  0  0  0  0  0  0  0
    1.2753   -6.3905   26.5102 C   0  0  0  0  0  0  0  0  0  0  0  0
    8.3581   -6.3974   16.1248 C   0  0  0  0  0  0  0  0  0  0  0  0
    8.1933   -7.7028   18.1201 C   0  0  0  0  0  0  0  0  0  0  0  0
    3.4753   -7.6004   29.0217 C   0  0  0  0  0  0  0  0  0  0  0  0
    4.1250   -8.6128   17.1640 C   0  0  0  0  0  0  0  0  0  0  0  0
    4.3604   -7.4671   15.0834 C   0  0  0  0  0  0  0  0  0  0  0  0
    4.9206   -7.8607   16.3184 C   0  0  0  0  0  0  0  0  0  0  0  0
    0.3465   -8.4196   14.3207 C   0  0  0  0  0  0  0  0  0  0  0  0
    2.7780   -5.2137   28.6751 C   0  0  0  0  0  0  0  0  0  0  0  0
    2.8249   -8.9594   16.8036 C   0  0  0  0  0  0  0  0  0  0  0  0
    4.4900  -10.0632   29.7925 C   0  0  0  0  0  0  0  0  0  0  0  0
    1.1993   -4.9217   26.7074 C   0  0  0  0  0  0  0  0  0  0  0  0
    4.9705  -11.2180   30.0993 O   0  0  0  0  0  0  0  0  0  0  0  0
    2.8210   -6.5811   28.3649 C   0  0  0  0  0  0  0  0  0  0  0  0
    3.2555   -8.7642   28.2666 C   0  0  0  0  0  0  0  0  0  0  0  0
    4.2007   -7.6603   30.1899 C   0  0  0  0  0  0  0  0  0  0  0  0
    2.4930   -8.4557   27.1957 N   0  0  0  0  0  0  0  0  0  0  0  0
    3.0155   -7.8343   14.7618 C   0  0  0  0  0  0  0  0  0  0  0  0
    7.0290   -6.6858   15.7960 C   0  0  0  0  0  0  0  0  0  0  0  0
    4.7120   -8.9224   30.6137 C   0  0  0  0  0  0  0  0  0  0  0  0
    2.1600   -7.1156   27.2556 C   0  0  0  0  0  0  0  0  0  0  0  0
    2.3070   -8.5545   15.6526 C   0  0  0  0  0  0  0  0  0  0  0  0
    3.7534   -9.9365   28.6470 N   0  0  0  0  0  0  0  0  0  0  0  0
  1 13  1  0
  1 27  1  0
  2  3  4  0
  2  8  4  0
  3 12  1  0
  3 24  4  0
  4 14  1  0
  4 17  1  0
  5  7  4  0
  5  8  4  0
  6 17  1  0
  6 26  1  0
  7 24  4  0
  9 19  4  0
  9 20  4  0
  9 21  4  0
 10 12  4  0
 10 15  4  0
 11 12  4  0
 11 23  4  0
 14 19  1  0
 15 27  4  0
 16 18  1  0
 16 25  4  0
 16 28  4  0
 19 26  4  0
 20 22  4  0
 20 28  4  0
 21 25  4  0
 22 26  4  0
 23 27  4  0
M  END
$$$$

 Created by Python create_sdf_string function

 28 39  0  0  0  0  0  0  0  0999 V2000
    6.7842   -8.0694   17.8766 C   0  0  0  0  0  0  0  0  0  0  0  0
    6.2814   -7.4648   16.7119 C   0  0  0  0  0  0  0  0  0  0  0  0
    1.6354   -4.4747   28.0733 C   0  0  0  0  0  0  0  0  0  0  0  0
    8.8805   -6.8316   17.2947 C   0  0  0  0  0  0  0  0  0  0  0  0
    1.3409   -6.3700   26.4561 C   0  0  0  0  0  0  0  0  0  0  0  0
    8.2943   -6.4972   16.1675 C   0  0  0  0  0  0  0  0  0  0  0  0
    8.2242   -7.7371   18.2134 C   0  0  0  0  0  0  0  0  0  0  0  0
    3.4693   -7.6089   29.0143 C   0  0  0  0  0  0  0  0  0  0  0  0
    4.1510   -8.4781   17.1554 C   0  0  0  0  0  0  0  0  0  0  0  0
    4.2909   -7.4407   14.9965 C   0  0  0  0  0  0  0  0  0  0  0  0
    4.9417   -7.8172   16.3036 C   0  0  0  0  0  0  0  0  0  0  0  0
    0.3311   -8.3654   14.2543 C   0  0  0  0  0  0  0  0  0  0  0  0
    2.7803   -5.2883   28.6516 C   0  0  0  0  0  0  0  0  0  0  0  0
    2.8339   -8.9542   16.8206 C   0  0  0  0  0  0  0  0  0  0  0  0
    4.6006  -10.1868   29.7638 C   0  0  0  0  0  0  0  0  0  0  0  0
    1.1762   -4.8652   26.7939 C   0  0  0  0  0  0  0  0  0  0  0  0
    5.0858  -11.2787   30.0313 O   0  0  0  0  0  0  0  0  0  0  0  0
    2.7728   -6.6662   28.3982 C   0  0  0  0  0  0  0  0  0  0  0  0
    3.1695   -8.7560   28.2367 C   0  0  0  0  0  0  0  0  0  0  0  0
    4.2353   -7.7481   30.1065 C   0  0  0  0  0  0  0  0  0  0  0  0
    2.4300   -8.4746   27.2101 N   0  0  0  0  0  0  0  0  0  0  0  0
    3.0466   -7.8614   14.7596 C   0  0  0  0  0  0  0  0  0  0  0  0
    4.7849   -8.8780   30.6258 C   0  0  0  0  0  0  0  0  0  0  0  0
    2.2003   -7.0929   27.1880 C   0  0  0  0  0  0  0  0  0  0  0  0
    2.2637   -8.5300   15.6571 C   0  0  0  0  0  0  0  0  0  0  0  0
    3.7658   -9.9203   28.6104 N   0  0  0  0  0  0  0  0  0  0  0  0
    1.0088   -8.8862   15.4527 He  0  0  0  0  0  0  0  0  0  0  0  0
    6.9694   -6.6907   15.7323 He  0  0  0  0  0  0  0  0  0  0  0  0
  1  2  4  0
  1  5  1  0
  1  7  4  0
  1 18  2  0
  1 22  3  0
  2 11  1  0
  2 16  3  0
  3 13  1  0
  3 16  1  0
  3 19  4  0
  4  6  4  0
  4  7  4  0
  5 16  1  0
  5 24  1  0
  6  7  4  0
  7 16  2  0
  8 10  3  0
  8 18  4  0
  8 19  4  0
  8 20  4  0
  8 23  3  0
  9 11  4  0
  9 14  4  0
  9 15  4  0
 10 11  4  0
 10 22  4  0
 11 26  4  0
 13 18  1  0
 13 19  1  0
 14 25  4  0
 15 17  1  0
 15 23  4  0
 15 26  4  0
 18 24  4  0
 19 21  4  0
 19 26  4  0
 20 23  4  0
 21 24  2  0
 22 25  4  0
M  END
$$$$

 Created by Python create_sdf_string function

 28 31  0  0  0  0  0  0  0  0999 V2000
    0.9798   -8.8758   15.4024 O   0  0  0  0  0  0  0  0  0  0  0  0
    6.8498   -7.9984   17.8546 C   0  0  0  0  0  0  0  0  0  0  0  0
    6.2659   -7.5119   16.6576 C   0  0  0  0  0  0  0  0  0  0  0  0
    1.6363   -4.4451   28.0848 C   0  0  0  0  0  0  0  0  0  0  0  0
    8.8902   -6.8821   17.3018 C   0  0  0  0  0  0  0  0  0  0  0  0
    1.3364   -6.3508   26.4700 C   0  0  0  0  0  0  0  0  0  0  0  0
    8.3376   -6.4126   16.1486 C   0  0  0  0  0  0  0  0  0  0  0  0
    8.1858   -7.7011   18.1671 C   0  0  0  0  0  0  0  0  0  0  0  0
    3.4687   -7.6220   29.0289 C   0  0  0  0  0  0  0  0  0  0  0  0
    4.1343   -8.5543   17.1820 C   0  0  0  0  0  0  0  0  0  0  0  0
    4.3411   -7.4567   15.0713 C   0  0  0  0  0  0  0  0  0  0  0  0
    4.9236   -7.8306   16.3100 C   0  0  0  0  0  0  0  0  0  0  0  0
    0.3087   -8.4096   14.2895 C   0  0  0  0  0  0  0  0  0  0  0  0
    2.7345   -5.2483   28.6611 C   0  0  0  0  0  0  0  0  0  0  0  0
    2.8268   -8.9190   16.8543 C   0  0  0  0  0  0  0  0  0  0  0  0
    4.5574  -10.0843   29.7484 C   0  0  0  0  0  0  0  0  0  0  0  0
    1.1812   -4.9017   26.7511 C   0  0  0  0  0  0  0  0  0  0  0  0
    5.0566  -11.2261   30.0303 O   0  0  0  0  0  0  0  0  0  0  0  0
    2.7972   -6.5947   28.3748 C   0  0  0  0  0  0  0  0  0  0  0  0
    3.2374   -8.7660   28.2713 C   0  0  0  0  0  0  0  0  0  0  0  0
    4.2481   -7.7072   30.1763 C   0  0  0  0  0  0  0  0  0  0  0  0
    2.4727   -8.4594   27.2372 N   0  0  0  0  0  0  0  0  0  0  0  0
    3.0342   -7.8205   14.7514 C   0  0  0  0  0  0  0  0  0  0  0  0
    7.0176   -6.7024   15.7900 C   0  0  0  0  0  0  0  0  0  0  0  0
    4.7986   -8.9533   30.5631 C   0  0  0  0  0  0  0  0  0  0  0  0
    2.1542   -7.1323   27.2685 C   0  0  0  0  0  0  0  0  0  0  0  0
    2.2957   -8.5329   15.6632 C   0  0  0  0  0  0  0  0  0  0  0  0
    3.7656   -9.9539   28.6267 N   0  0  0  0  0  0  0  0  0  0  0  0
  1 13  1  0
  1 27  1  0
  2  3  4  0
  2  8  4  0
  3 12  1  0
  3 24  4  0
  4 14  1  0
  4 17  1  0
  5  7  4  0
  5  8  4  0
  6 17  1  0
  6 26  1  0
  7 24  4  0
  9 19  4  0
  9 20  4  0
  9 21  4  0
 10 12  4  0
 10 15  4  0
 11 12  4  0
 11 23  4  0
 14 19  1  0
 15 27  4  0
 16 18  1  0
 16 25  4  0
 16 28  4  0
 19 26  4  0
 20 22  4  0
 20 28  4  0
 21 25  4  0
 22 26  4  0
 23 27  4  0
M  END
$$$$

 Created by Python create_sdf_string function

 28 36  0  0  0  0  0  0  0  0999 V2000
    0.9692   -8.8541   15.3508 O   0  0  0  0  0  0  0  0  0  0  0  0
    6.8418   -8.0126   17.8452 C   0  0  0  0  0  0  0  0  0  0  0  0
    6.1583   -7.6028   16.7132 C   0  0  0  0  0  0  0  0  0  0  0  0
    1.5732   -4.4871   28.0330 C   0  0  0  0  0  0  0  0  0  0  0  0
    8.8162   -6.9323   17.3064 N   0  0  0  0  0  0  0  0  0  0  0  0
    1.3547   -6.3087   26.4319 C   0  0  0  0  0  0  0  0  0  0  0  0
    8.2708   -6.3959   16.1551 C   0  0  0  0  0  0  0  0  0  0  0  0
    8.2193   -7.7162   18.1759 C   0  0  0  0  0  0  0  0  0  0  0  0
    3.4516   -7.5538   28.9588 C   0  0  0  0  0  0  0  0  0  0  0  0
    4.0355   -8.5326   17.1694 C   0  0  0  0  0  0  0  0  0  0  0  0
    4.3584   -7.3805   15.1067 C   0  0  0  0  0  0  0  0  0  0  0  0
    4.8261   -7.8386   16.2812 C   0  0  0  0  0  0  0  0  0  0  0  0
    0.2962   -8.3787   14.3172 C   0  0  0  0  0  0  0  0  0  0  0  0
    2.7362   -5.2726   28.6182 C   0  0  0  0  0  0  0  0  0  0  0  0
    2.8489   -8.9480   16.8808 C   0  0  0  0  0  0  0  0  0  0  0  0
    4.5105  -10.0699   29.6856 C   0  0  0  0  0  0  0  0  0  0  0  0
    1.1160   -4.9113   26.7136 C   0  0  0  0  0  0  0  0  0  0  0  0
    5.0353  -11.2004   29.9681 O   0  0  0  0  0  0  0  0  0  0  0  0
    2.8213   -6.5752   28.4433 C   0  0  0  0  0  0  0  0  0  0  0  0
    3.2093   -8.8208   28.2966 F   0  0  0  0  0  0  0  0  0  0  0  0
    4.2387   -7.7615   30.1482 C   0  0  0  0  0  0  0  0  0  0  0  0
    2.4431   -8.4422   27.1944 N   0  0  0  0  0  0  0  0  0  0  0  0
    2.9835   -7.8266   14.7372 C   0  0  0  0  0  0  0  0  0  0  0  0
    7.0125   -6.6928   15.8746 C   0  0  0  0  0  0  0  0  0  0  0  0
    4.7345   -8.9706   30.5895 C   0  0  0  0  0  0  0  0  0  0  0  0
    2.0594   -7.0764   27.3083 C   0  0  0  0  0  0  0  0  0  0  0  0
    2.2417   -8.5685   15.5777 C   0  0  0  0  0  0  0  0  0  0  0  0
    3.8374   -9.9146   28.5942 N   0  0  0  0  0  0  0  0  0  0  0  0
  1 13  1  0
  1 27  1  0
  2  3  4  0
  2  8  4  0
  3  6  3  0
  3 12  1  0
  3 24  4  0
  4 14  1  0
  4 17  1  0
  5  7  4  0
  5  8  4  0
  6 17  1  0
  6 26  1  0
  7 24  4  0
  8 11  1  0
  9 19  4  0
  9 20  4  0
  9 21  4  0
  9 28  4  0
 10 12  4  0
 10 15  4  0
 11 12  4  0
 11 23  4  0
 11 25  3  0
 14 19  1  0
 16 18  1  0
 16 25  4  0
 16 28  4  0
 17 28  1  0
 19 21  2  0
 19 26  4  0
 20 22  4  0
 20 28  4  0
 21 25  4  0
 22 26  4  0
 23 27  4  0
M  END
$$$$

 Created by Python create_sdf_string function

 28 31  0  0  0  0  0  0  0  0999 V2000
    0.9594   -8.8646   15.3327 O   0  0  0  0  0  0  0  0  0  0  0  0
    6.8316   -8.0257   17.8546 C   0  0  0  0  0  0  0  0  0  0  0  0
    6.2264   -7.5287   16.6926 C   0  0  0  0  0  0  0  0  0  0  0  0
    1.5960   -4.4567   28.0544 C   0  0  0  0  0  0  0  0  0  0  0  0
    8.8518   -6.9147   17.3093 N   0  0  0  0  0  0  0  0  0  0  0  0
    1.3418   -6.3702   26.4506 C   0  0  0  0  0  0  0  0  0  0  0  0
    8.2893   -6.4021   16.1850 C   0  0  0  0  0  0  0  0  0  0  0  0
    8.1548   -7.7236   18.1462 C   0  0  0  0  0  0  0  0  0  0  0  0
    3.4686   -7.6226   29.0369 C   0  0  0  0  0  0  0  0  0  0  0  0
    4.0746   -8.5797   17.1793 C   0  0  0  0  0  0  0  0  0  0  0  0
    4.3189   -7.4160   15.0871 C   0  0  0  0  0  0  0  0  0  0  0  0
    4.8758   -7.8420   16.3312 C   0  0  0  0  0  0  0  0  0  0  0  0
    0.3109   -8.3794   14.2963 C   0  0  0  0  0  0  0  0  0  0  0  0
    2.7233   -5.2293   28.6380 C   0  0  0  0  0  0  0  0  0  0  0  0
    2.7847   -8.9349   16.8225 C   0  0  0  0  0  0  0  0  0  0  0  0
    4.5302  -10.0660   29.7059 C   0  0  0  0  0  0  0  0  0  0  0  0
    1.1298   -4.9272   26.7088 C   0  0  0  0  0  0  0  0  0  0  0  0
    5.0195  -11.1938   29.9668 O   0  0  0  0  0  0  0  0  0  0  0  0
    2.7806   -6.5840   28.3896 C   0  0  0  0  0  0  0  0  0  0  0  0
    3.2389   -8.7613   28.2700 C   0  0  0  0  0  0  0  0  0  0  0  0
    4.2300   -7.7274   30.1669 C   0  0  0  0  0  0  0  0  0  0  0  0
    2.4295   -8.4362   27.2364 N   0  0  0  0  0  0  0  0  0  0  0  0
    2.9978   -7.7956   14.7435 C   0  0  0  0  0  0  0  0  0  0  0  0
    6.9838   -6.6942   15.8438 C   0  0  0  0  0  0  0  0  0  0  0  0
    4.7565   -8.9622   30.5569 C   0  0  0  0  0  0  0  0  0  0  0  0
    2.1112   -7.1015   27.3013 C   0  0  0  0  0  0  0  0  0  0  0  0
    2.2725   -8.5293   15.6313 C   0  0  0  0  0  0  0  0  0  0  0  0
    3.7689   -9.9283   28.5834 N   0  0  0  0  0  0  0  0  0  0  0  0
  1 13  1  0
  1 27  1  0
  2  3  4  0
  2  8  4  0
  3 12  1  0
  3 24  4  0
  4 14  1  0
  4 17  1  0
  5  7  4  0
  5  8  4  0
  6 17  1  0
  6 26  1  0
  7 24  4  0
  9 19  4  0
  9 20  4  0
  9 21  4  0
 10 12  4  0
 10 15  4  0
 11 12  4  0
 11 23  4  0
 14 19  1  0
 15 27  4  0
 16 18  1  0
 16 25  4  0
 16 28  4  0
 19 26  4  0
 20 22  4  0
 20 28  4  0
 21 25  4  0
 22 26  4  0
 23 27  4  0
M  END
$$$$

 Created by Python create_sdf_string function

 28 39  0  0  0  0  0  0  0  0999 V2000
    0.8651   -8.7905   15.3237 O   0  0  0  0  0  0  0  0  0  0  0  0
    6.8483   -8.0917   17.9077 C   0  0  0  0  0  0  0  0  0  0  0  0
    6.2595   -7.5197   16.7238 C   0  0  0  0  0  0  0  0  0  0  0  0
    1.6159   -4.4532   27.9905 C   0  0  0  0  0  0  0  0  0  0  0  0
    8.8698   -6.9828   17.3678 N   0  0  0  0  0  0  0  0  0  0  0  0
    1.3731   -6.4280   26.3614 C   0  0  0  0  0  0  0  0  0  0  0  0
    8.3234   -6.4048   16.2466 C   0  0  0  0  0  0  0  0  0  0  0  0
    8.1318   -7.7492   18.1241 C   0  0  0  0  0  0  0  0  0  0  0  0
    3.4747   -7.6257   29.1004 C   0  0  0  0  0  0  0  0  0  0  0  0
    4.0779   -8.5908   17.2325 C   0  0  0  0  0  0  0  0  0  0  0  0
    4.3523   -7.3819   15.1045 C   0  0  0  0  0  0  0  0  0  0  0  0
    4.9326   -7.8685   16.3140 C   0  0  0  0  0  0  0  0  0  0  0  0
    0.3854   -8.3651   14.3284 C   0  0  0  0  0  0  0  0  0  0  0  0
    2.7275   -5.2140   28.6052 C   0  0  0  0  0  0  0  0  0  0  0  0
    2.7642   -8.9259   16.8422 C   0  0  0  0  0  0  0  0  0  0  0  0
    4.4948  -10.1028   29.6829 C   0  0  0  0  0  0  0  0  0  0  0  0
    1.1206   -5.0274   26.6702 C   0  0  0  0  0  0  0  0  0  0  0  0
    2.8003   -6.6996   28.3548 C   0  0  0  0  0  0  0  0  0  0  0  0
    3.2260   -8.7723   28.3184 C   0  0  0  0  0  0  0  0  0  0  0  0
    4.2600   -7.6929   30.2048 C   0  0  0  0  0  0  0  0  0  0  0  0
    2.4834   -8.5047   27.3673 N   0  0  0  0  0  0  0  0  0  0  0  0
    2.9783   -7.7911   14.7768 C   0  0  0  0  0  0  0  0  0  0  0  0
    6.9962   -6.6895   15.8912 C   0  0  0  0  0  0  0  0  0  0  0  0
    4.7180   -8.9719   30.6116 C   0  0  0  0  0  0  0  0  0  0  0  0
    2.1333   -7.0529   27.2643 C   0  0  0  0  0  0  0  0  0  0  0  0
    2.2507   -8.5552   15.6171 F   0  0  0  0  0  0  0  0  0  0  0  0
    3.7765   -9.8964   28.6066 N   0  0  0  0  0  0  0  0  0  0  0  0
    5.0683  -11.1920   29.9920 He  0  0  0  0  0  0  0  0  0  0  0  0
  1 13  1  0
  1 26  1  0
  2  3  4  0
  2  8  4  0
  2 10  3  0
  2 15  3  0
  3 12  1  0
  3 23  4  0
  3 25  4  0
  4 14  1  0
  4 17  1  0
  5  7  4  0
  5  8  3  0
  6 17  1  0
  6 25  1  0
  6 27  2  0
  7 23  4  0
  9 18  4  0
  9 19  4  0
  9 20  4  0
  9 25  1  0
 10 12  4  0
 10 15  4  0
 11 12  4  0
 11 22  4  0
 12 21  4  0
 12 24  1  0
 14 18  1  0
 15 25  2  0
 15 26  4  0
 16 24  4  0
 16 27  4  0
 18 25  4  0
 19 21  4  0
 19 27  4  0
 20 24  4  0
 20 27  4  0
 21 25  4  0
 22 26  4  0
M  END
$$$$

 Created by Python create_sdf_string function

 28 31  0  0  0  0  0  0  0  0999 V2000
    0.9481   -8.8203   15.3704 O   0  0  0  0  0  0  0  0  0  0  0  0
    6.8388   -8.0639   17.8683 C   0  0  0  0  0  0  0  0  0  0  0  0
    6.2369   -7.5375   16.7013 C   0  0  0  0  0  0  0  0  0  0  0  0
    1.6135   -4.4443   27.9698 C   0  0  0  0  0  0  0  0  0  0  0  0
    8.8716   -6.9519   17.3551 N   0  0  0  0  0  0  0  0  0  0  0  0
    1.3825   -6.4341   26.4442 C   0  0  0  0  0  0  0  0  0  0  0  0
    8.3224   -6.3926   16.2316 C   0  0  0  0  0  0  0  0  0  0  0  0
    8.1614   -7.7575   18.1443 C   0  0  0  0  0  0  0  0  0  0  0  0
    3.4705   -7.6218   29.0648 C   0  0  0  0  0  0  0  0  0  0  0  0
    4.0719   -8.6164   17.1909 C   0  0  0  0  0  0  0  0  0  0  0  0
    4.3276   -7.4209   15.1183 C   0  0  0  0  0  0  0  0  0  0  0  0
    4.8957   -7.8534   16.3503 C   0  0  0  0  0  0  0  0  0  0  0  0
    0.3571   -8.3488   14.2598 C   0  0  0  0  0  0  0  0  0  0  0  0
    2.7116   -5.2116   28.6151 C   0  0  0  0  0  0  0  0  0  0  0  0
    2.7838   -8.9290   16.8385 C   0  0  0  0  0  0  0  0  0  0  0  0
    4.5266  -10.0608   29.7444 C   0  0  0  0  0  0  0  0  0  0  0  0
    1.1283   -5.0027   26.6693 C   0  0  0  0  0  0  0  0  0  0  0  0
    5.0522  -11.2451   30.0162 O   0  0  0  0  0  0  0  0  0  0  0  0
    2.8009   -6.5927   28.3976 C   0  0  0  0  0  0  0  0  0  0  0  0
    3.2343   -8.7554   28.3128 C   0  0  0  0  0  0  0  0  0  0  0  0
    4.2326   -7.7131   30.2169 C   0  0  0  0  0  0  0  0  0  0  0  0
    2.4571   -8.4636   27.2883 N   0  0  0  0  0  0  0  0  0  0  0  0
    3.0116   -7.7743   14.7869 C   0  0  0  0  0  0  0  0  0  0  0  0
    7.0081   -6.6730   15.8746 C   0  0  0  0  0  0  0  0  0  0  0  0
    4.7574   -8.9515   30.5949 C   0  0  0  0  0  0  0  0  0  0  0  0
    2.1642   -7.1441   27.3166 C   0  0  0  0  0  0  0  0  0  0  0  0
    2.2657   -8.5046   15.6552 C   0  0  0  0  0  0  0  0  0  0  0  0
    3.7501   -9.9245   28.6286 N   0  0  0  0  0  0  0  0  0  0  0  0
  1 13  1  0
  1 27  1  0
  2  3  4  0
  2  8  4  0
  3 12  1  0
  3 24  4  0
  4 14  1  0
  4 17  1  0
  5  7  4  0
  5  8  4  0
  6 17  1  0
  6 26  1  0
  7 24  4  0
  9 19  4  0
  9 20  4  0
  9 21  4  0
 10 12  4  0
 10 15  4  0
 11 12  4  0
 11 23  4  0
 14 19  1  0
 15 27  4  0
 16 18  1  0
 16 25  4  0
 16 28  4  0
 19 26  4  0
 20 22  4  0
 20 28  4  0
 21 25  4  0
 22 26  4  0
 23 27  4  0
M  END
$$$$

 Created by Python create_sdf_string function

 28 29  0  0  0  0  0  0  0  0999 V2000
    0.9564   -8.7298   15.3913 O   0  0  0  0  0  0  0  0  0  0  0  0
    6.7949   -8.0433   17.8604 C   0  0  0  0  0  0  0  0  0  0  0  0
    6.1818   -7.5356   16.6658 C   0  0  0  0  0  0  0  0  0  0  0  0
    1.6045   -4.4065   27.9822 C   0  0  0  0  0  0  0  0  0  0  0  0
    8.8273   -6.9408   17.3405 N   0  0  0  0  0  0  0  0  0  0  0  0
    1.4025   -6.4141   26.4446 C   0  0  0  0  0  0  0  0  0  0  0  0
    8.2865   -6.3939   16.2041 C   0  0  0  0  0  0  0  0  0  0  0  0
    8.1880   -7.6563   18.0610 C   0  0  0  0  0  0  0  0  0  0  0  0
    3.4418   -7.6345   29.1281 C   0  0  0  0  0  0  0  0  0  0  0  0
    4.0687   -8.6356   17.1561 C   0  0  0  0  0  0  0  0  0  0  0  0
    4.2678   -7.4395   15.0768 C   0  0  0  0  0  0  0  0  0  0  0  0
    0.3763   -8.3844   14.2493 C   0  0  0  0  0  0  0  0  0  0  0  0
    2.7098   -5.1889   28.5619 C   0  0  0  0  0  0  0  0  0  0  0  0
    2.7330   -8.9800   16.8759 C   0  0  0  0  0  0  0  0  0  0  0  0
    4.5731  -10.1371   29.7330 C   0  0  0  0  0  0  0  0  0  0  0  0
    1.1665   -5.0149   26.7306 C   0  0  0  0  0  0  0  0  0  0  0  0
    5.0197  -11.2240   29.9731 O   0  0  0  0  0  0  0  0  0  0  0  0
    2.8390   -6.5662   28.4045 C   0  0  0  0  0  0  0  0  0  0  0  0
    3.2237   -8.7744   28.3222 C   0  0  0  0  0  0  0  0  0  0  0  0
    4.1914   -7.7797   30.2035 C   0  0  0  0  0  0  0  0  0  0  0  0
    2.4507   -8.4392   27.2870 N   0  0  0  0  0  0  0  0  0  0  0  0
    3.0208   -7.7532   14.7790 C   0  0  0  0  0  0  0  0  0  0  0  0
    7.0284   -6.7529   15.8899 C   0  0  0  0  0  0  0  0  0  0  0  0
    4.7579   -8.8905   30.5909 C   0  0  0  0  0  0  0  0  0  0  0  0
    2.1414   -7.1901   27.3110 C   0  0  0  0  0  0  0  0  0  0  0  0
    2.2950   -8.5092   15.6444 C   0  0  0  0  0  0  0  0  0  0  0  0
    3.8430   -9.9295   28.6369 N   0  0  0  0  0  0  0  0  0  0  0  0
    4.9082   -7.8193   16.3774 He  0  0  0  0  0  0  0  0  0  0  0  0
  1 12  1  0
  1 26  1  0
  2  3  4  0
  2  8  4  0
  2 13  2  0
  3 23  4  0
  4 13  1  0
  4 16  1  0
  4 19  4  0
  5  7  4  0
  5  8  4  0
  6 16  1  0
  6 25  1  0
  7 23  4  0
  9 18  4  0
  9 19  4  0
  9 20  4  0
 10 14  4  0
 11 22  4  0
 13 18  1  0
 14 26  4  0
 15 24  4  0
 15 27  4  0
 18 25  4  0
 19 21  4  0
 19 27  4  0
 20 24  4  0
 21 25  4  0
 22 26  4  0
M  END
$$$$

 Created by Python create_sdf_string function

 28 31  0  0  0  0  0  0  0  0999 V2000
    0.9396   -8.7533   15.3709 O   0  0  0  0  0  0  0  0  0  0  0  0
    6.8167   -8.0341   17.8610 C   0  0  0  0  0  0  0  0  0  0  0  0
    6.2275   -7.5416   16.6884 C   0  0  0  0  0  0  0  0  0  0  0  0
    1.6439   -4.4172   28.0002 C   0  0  0  0  0  0  0  0  0  0  0  0
    8.8443   -6.9079   17.3119 N   0  0  0  0  0  0  0  0  0  0  0  0
    1.3896   -6.4323   26.4608 C   0  0  0  0  0  0  0  0  0  0  0  0
    8.2918   -6.3897   16.1813 C   0  0  0  0  0  0  0  0  0  0  0  0
    8.1394   -7.7123   18.1238 C   0  0  0  0  0  0  0  0  0  0  0  0
    3.4669   -7.6387   29.0934 C   0  0  0  0  0  0  0  0  0  0  0  0
    4.0827   -8.6278   17.1774 C   0  0  0  0  0  0  0  0  0  0  0  0
    4.3278   -7.4220   15.1168 C   0  0  0  0  0  0  0  0  0  0  0  0
    4.8896   -7.8645   16.3322 C   0  0  0  0  0  0  0  0  0  0  0  0
    0.3749   -8.3806   14.2301 C   0  0  0  0  0  0  0  0  0  0  0  0
    2.7278   -5.1961   28.5992 C   0  0  0  0  0  0  0  0  0  0  0  0
    2.7811   -8.9479   16.8513 C   0  0  0  0  0  0  0  0  0  0  0  0
    4.5579  -10.0771   29.7438 C   0  0  0  0  0  0  0  0  0  0  0  0
    1.1544   -5.0018   26.6975 C   0  0  0  0  0  0  0  0  0  0  0  0
    5.0191  -11.1737   29.9844 O   0  0  0  0  0  0  0  0  0  0  0  0
    2.7994   -6.5850   28.4056 C   0  0  0  0  0  0  0  0  0  0  0  0
    3.2537   -8.7682   28.3317 C   0  0  0  0  0  0  0  0  0  0  0  0
    4.2009   -7.7333   30.2273 C   0  0  0  0  0  0  0  0  0  0  0  0
    2.4659   -8.4703   27.2986 N   0  0  0  0  0  0  0  0  0  0  0  0
    3.0092   -7.7562   14.7897 C   0  0  0  0  0  0  0  0  0  0  0  0
    6.9922   -6.7141   15.8504 C   0  0  0  0  0  0  0  0  0  0  0  0
    4.7784   -8.9521   30.6000 C   0  0  0  0  0  0  0  0  0  0  0  0
    2.1630   -7.1468   27.3270 C   0  0  0  0  0  0  0  0  0  0  0  0
    2.2656   -8.4864   15.6619 C   0  0  0  0  0  0  0  0  0  0  0  0
    3.7918   -9.9390   28.6253 N   0  0  0  0  0  0  0  0  0  0  0  0
  1 13  1  0
  1 27  1  0
  2  3  4  0
  2  8  4  0
  3 12  1  0
  3 24  4  0
  4 14  1  0
  4 17  1  0
  5  7  4  0
  5  8  4  0
  6 17  1  0
  6 26  1  0
  7 24  4  0
  9 19  4  0
  9 20  4  0
  9 21  4  0
 10 12  4  0
 10 15  4  0
 11 12  4  0
 11 23  4  0
 14 19  1  0
 15 27  4  0
 16 18  2  0
 16 25  4  0
 16 28  4  0
 19 26  4  0
 20 22  4  0
 20 28  4  0
 21 25  4  0
 22 26  4  0
 23 27  4  0
M  END
$$$$

 Created by Python create_sdf_string function

 28 37  0  0  0  0  0  0  0  0999 V2000
    0.9109   -8.7624   15.3750 O   0  0  0  0  0  0  0  0  0  0  0  0
    6.7898   -8.0501   17.8294 C   0  0  0  0  0  0  0  0  0  0  0  0
    6.1945   -7.5180   16.7045 C   0  0  0  0  0  0  0  0  0  0  0  0
    1.6771   -4.3795   27.9643 C   0  0  0  0  0  0  0  0  0  0  0  0
    8.8574   -6.9199   17.3165 N   0  0  0  0  0  0  0  0  0  0  0  0
    1.4320   -6.4415   26.4517 C   0  0  0  0  0  0  0  0  0  0  0  0
    8.3072   -6.3482   16.2228 C   0  0  0  0  0  0  0  0  0  0  0  0
    8.1737   -7.7027   18.1670 C   0  0  0  0  0  0  0  0  0  0  0  0
    3.4398   -7.6871   29.0880 C   0  0  0  0  0  0  0  0  0  0  0  0
    4.0352   -8.6808   17.2123 C   0  0  0  0  0  0  0  0  0  0  0  0
    4.2606   -7.4063   15.1150 C   0  0  0  0  0  0  0  0  0  0  0  0
    4.9581   -7.8670   16.2681 C   0  0  0  0  0  0  0  0  0  0  0  0
    0.3669   -8.4252   14.2346 C   0  0  0  0  0  0  0  0  0  0  0  0
    2.7091   -5.2213   28.5889 C   0  0  0  0  0  0  0  0  0  0  0  0
    2.7774   -8.9160   16.8568 C   0  0  0  0  0  0  0  0  0  0  0  0
    4.5472  -10.1084   29.7494 C   0  0  0  0  0  0  0  0  0  0  0  0
    1.1343   -5.0294   26.6982 C   0  0  0  0  0  0  0  0  0  0  0  0
    5.0484  -11.1956   29.9898 O   0  0  0  0  0  0  0  0  0  0  0  0
    2.7828   -6.5137   28.3600 C   0  0  0  0  0  0  0  0  0  0  0  0
    3.2117   -8.7945   28.4211 C   0  0  0  0  0  0  0  0  0  0  0  0
    4.2325   -7.7163   30.1973 C   0  0  0  0  0  0  0  0  0  0  0  0
    2.4581   -8.4757   27.3003 N   0  0  0  0  0  0  0  0  0  0  0  0
    3.0412   -7.7733   14.8414 C   0  0  0  0  0  0  0  0  0  0  0  0
    6.9715   -6.7603   15.8752 C   0  0  0  0  0  0  0  0  0  0  0  0
    4.7905   -8.9009   30.5819 C   0  0  0  0  0  0  0  0  0  0  0  0
    2.1899   -7.1696   27.2881 C   0  0  0  0  0  0  0  0  0  0  0  0
    2.2803   -8.4635   15.6266 C   0  0  0  0  0  0  0  0  0  0  0  0
    3.8474   -9.9453   28.6522 N   0  0  0  0  0  0  0  0  0  0  0  0
  1 13  1  0
  1 27  1  0
  2  3  4  0
  2  8  4  0
  3 12  1  0
  3 24  4  0
  4 14  1  0
  4 17  1  0
  5  7  4  0
  5  8  4  0
  5 11  4  0
  6 17  1  0
  6 26  1  0
  7 19  4  0
  7 24  4  0
  8 26  3  0
  9 19  4  0
  9 20  4  0
  9 21  4  0
 10 12  4  0
 10 15  4  0
 11 12  4  0
 11 21  4  0
 11 23  4  0
 12 23  1  0
 14 19  1  0
 15 27  4  0
 16 18  2  0
 16 24  3  0
 16 25  4  0
 16 28  4  0
 19 26  4  0
 20 22  4  0
 20 28  4  0
 21 25  4  0
 22 26  4  0
 23 27  4  0
M  END
$$$$

 Created by Python create_sdf_string function

 28 31  0  0  0  0  0  0  0  0999 V2000
    0.9350   -8.7589   15.3560 O   0  0  0  0  0  0  0  0  0  0  0  0
    6.8186   -8.0441   17.8586 C   0  0  0  0  0  0  0  0  0  0  0  0
    6.2377   -7.5485   16.6888 C   0  0  0  0  0  0  0  0  0  0  0  0
    1.7027   -4.3913   27.9688 C   0  0  0  0  0  0  0  0  0  0  0  0
    8.8548   -6.9021   17.3403 N   0  0  0  0  0  0  0  0  0  0  0  0
    1.4065   -6.4407   26.4389 C   0  0  0  0  0  0  0  0  0  0  0  0
    8.2969   -6.3694   16.2177 C   0  0  0  0  0  0  0  0  0  0  0  0
    8.1450   -7.7198   18.1632 C   0  0  0  0  0  0  0  0  0  0  0  0
    3.4722   -7.6418   29.0911 C   0  0  0  0  0  0  0  0  0  0  0  0
    4.0875   -8.6493   17.1857 C   0  0  0  0  0  0  0  0  0  0  0  0
    4.3231   -7.4151   15.1247 C   0  0  0  0  0  0  0  0  0  0  0  0
    4.8756   -7.8686   16.3407 C   0  0  0  0  0  0  0  0  0  0  0  0
    0.3650   -8.4187   14.2167 C   0  0  0  0  0  0  0  0  0  0  0  0
    2.7295   -5.2004   28.6198 C   0  0  0  0  0  0  0  0  0  0  0  0
    2.7585   -8.9368   16.8438 C   0  0  0  0  0  0  0  0  0  0  0  0
    4.5692  -10.0744   29.7628 C   0  0  0  0  0  0  0  0  0  0  0  0
    1.1413   -5.0240   26.6928 C   0  0  0  0  0  0  0  0  0  0  0  0
    5.0349  -11.1531   30.0034 O   0  0  0  0  0  0  0  0  0  0  0  0
    2.7965   -6.5774   28.3985 C   0  0  0  0  0  0  0  0  0  0  0  0
    3.2534   -8.7906   28.3634 C   0  0  0  0  0  0  0  0  0  0  0  0
    4.2276   -7.6968   30.2164 C   0  0  0  0  0  0  0  0  0  0  0  0
    2.4698   -8.5012   27.3203 N   0  0  0  0  0  0  0  0  0  0  0  0
    3.0027   -7.7539   14.8104 C   0  0  0  0  0  0  0  0  0  0  0  0
    6.9931   -6.6999   15.8579 C   0  0  0  0  0  0  0  0  0  0  0  0
    4.8057   -8.9269   30.5998 C   0  0  0  0  0  0  0  0  0  0  0  0
    2.1819   -7.1576   27.3239 C   0  0  0  0  0  0  0  0  0  0  0  0
    2.2575   -8.4754   15.6659 C   0  0  0  0  0  0  0  0  0  0  0  0
    3.7753   -9.9655   28.6583 N   0  0  0  0  0  0  0  0  0  0  0  0
  1 13  1  0
  1 27  1  0
  2  3  4  0
  2  8  4  0
  3 12  1  0
  3 24  4  0
  4 14  1  0
  4 17  1  0
  5  7  4  0
  5  8  4  0
  6 17  1  0
  6 26  1  0
  7 24  4  0
  9 19  4  0
  9 20  4  0
  9 21  4  0
 10 12  4  0
 10 15  4  0
 11 12  4  0
 11 23  4  0
 14 19  1  0
 15 27  4  0
 16 18  2  0
 16 25  4  0
 16 28  4  0
 19 26  4  0
 20 22  4  0
 20 28  4  0
 21 25  4  0
 22 26  4  0
 23 27  4  0
M  END
$$$$

 Created by Python create_sdf_string function

 28 31  0  0  0  0  0  0  0  0999 V2000
    0.9202   -8.7589   15.3390 O   0  0  0  0  0  0  0  0  0  0  0  0
    6.7400   -8.0339   17.9236 C   0  0  0  0  0  0  0  0  0  0  0  0
    6.2193   -7.6095   16.7112 C   0  0  0  0  0  0  0  0  0  0  0  0
    1.7367   -4.4462   27.9897 C   0  0  0  0  0  0  0  0  0  0  0  0
    8.8501   -6.9311   17.3962 N   0  0  0  0  0  0  0  0  0  0  0  0
    8.3090   -6.3810   16.2342 C   0  0  0  0  0  0  0  0  0  0  0  0
    8.1793   -7.7742   18.1993 C   0  0  0  0  0  0  0  0  0  0  0  0
    3.5234   -7.6471   29.0959 C   0  0  0  0  0  0  0  0  0  0  0  0
    4.0702   -8.6666   17.1629 C   0  0  0  0  0  0  0  0  0  0  0  0
    4.3187   -7.4201   15.0888 C   0  0  0  0  0  0  0  0  0  0  0  0
    4.8295   -7.7942   16.3715 C   0  0  0  0  0  0  0  0  0  0  0  0
    0.3591   -8.3821   14.1649 C   0  0  0  0  0  0  0  0  0  0  0  0
    2.7231   -5.2014   28.6124 C   0  0  0  0  0  0  0  0  0  0  0  0
    2.7162   -8.9553   16.8887 C   0  0  0  0  0  0  0  0  0  0  0  0
    4.5808  -10.0840   29.7645 C   0  0  0  0  0  0  0  0  0  0  0  0
    1.1825   -5.0051   26.7257 C   0  0  0  0  0  0  0  0  0  0  0  0
    5.0278  -11.1355   30.0556 O   0  0  0  0  0  0  0  0  0  0  0  0
    2.8164   -6.5616   28.4067 C   0  0  0  0  0  0  0  0  0  0  0  0
    3.2824   -8.7153   28.3428 C   0  0  0  0  0  0  0  0  0  0  0  0
    4.2108   -7.7029   30.2074 C   0  0  0  0  0  0  0  0  0  0  0  0
    2.4333   -8.5209   27.3372 N   0  0  0  0  0  0  0  0  0  0  0  0
    3.0013   -7.7507   14.7663 C   0  0  0  0  0  0  0  0  0  0  0  0
    7.0379   -6.6426   15.8540 C   0  0  0  0  0  0  0  0  0  0  0  0
    4.7512   -8.9557   30.6001 C   0  0  0  0  0  0  0  0  0  0  0  0
    2.1593   -7.1832   27.2885 C   0  0  0  0  0  0  0  0  0  0  0  0
    2.2665   -8.4714   15.6725 C   0  0  0  0  0  0  0  0  0  0  0  0
    1.3782   -6.4482   26.4682 He  0  0  0  0  0  0  0  0  0  0  0  0
    3.8137   -9.9523   28.6585 He  0  0  0  0  0  0  0  0  0  0  0  0
  1 12  1  0
  1 26  1  0
  2  3  4  0
  2  7  4  0
  3 11  1  0
  3 23  4  0
  4 13  1  0
  4 16  1  0
  4 22  3  0
  5  6  4  0
  5  7  4  0
  6 23  4  0
  7 13  1  0
  8 18  4  0
  8 19  4  0
  8 20  4  0
  9 11  4  0
  9 14  4  0
 10 11  4  0
 10 22  4  0
 13 17  4  0
 13 18  1  0
 14 26  4  0
 15 17  4  0
 15 24  4  0
 16 17  2  0
 18 25  4  0
 19 21  4  0
 20 24  4  0
 21 25  4  0
 22 26  4  0
M  END
$$$$

 Created by Python create_sdf_string function

 28 31  0  0  0  0  0  0  0  0999 V2000
    0.9344   -8.7546   15.3282 O   0  0  0  0  0  0  0  0  0  0  0  0
    6.7953   -8.0438   17.9116 C   0  0  0  0  0  0  0  0  0  0  0  0
    6.2341   -7.5250   16.7258 C   0  0  0  0  0  0  0  0  0  0  0  0
    1.7381   -4.4269   27.9895 C   0  0  0  0  0  0  0  0  0  0  0  0
    8.8494   -6.9353   17.3847 N   0  0  0  0  0  0  0  0  0  0  0  0
    1.3897   -6.4407   26.5204 C   0  0  0  0  0  0  0  0  0  0  0  0
    8.3174   -6.3862   16.2459 C   0  0  0  0  0  0  0  0  0  0  0  0
    8.1299   -7.7637   18.1895 C   0  0  0  0  0  0  0  0  0  0  0  0
    3.4915   -7.6285   29.0759 C   0  0  0  0  0  0  0  0  0  0  0  0
    4.0447   -8.6396   17.1819 C   0  0  0  0  0  0  0  0  0  0  0  0
    4.3037   -7.4132   15.1156 C   0  0  0  0  0  0  0  0  0  0  0  0
    4.8700   -7.8577   16.3485 C   0  0  0  0  0  0  0  0  0  0  0  0
    0.3572   -8.3857   14.1708 C   0  0  0  0  0  0  0  0  0  0  0  0
    2.7478   -5.2388   28.6346 C   0  0  0  0  0  0  0  0  0  0  0  0
    2.7540   -8.9333   16.8655 C   0  0  0  0  0  0  0  0  0  0  0  0
    4.5677  -10.0656   29.7827 C   0  0  0  0  0  0  0  0  0  0  0  0
    1.1821   -5.0052   26.7168 C   0  0  0  0  0  0  0  0  0  0  0  0
    5.0700  -11.2130   30.0689 O   0  0  0  0  0  0  0  0  0  0  0  0
    2.8114   -6.6008   28.3933 C   0  0  0  0  0  0  0  0  0  0  0  0
    3.2617   -8.7771   28.3271 C   0  0  0  0  0  0  0  0  0  0  0  0
    4.2344   -7.6947   30.2228 C   0  0  0  0  0  0  0  0  0  0  0  0
    2.4652   -8.4966   27.3135 N   0  0  0  0  0  0  0  0  0  0  0  0
    3.0005   -7.7425   14.7831 C   0  0  0  0  0  0  0  0  0  0  0  0
    7.0114   -6.6741   15.8718 C   0  0  0  0  0  0  0  0  0  0  0  0
    4.7731   -8.9332   30.6039 C   0  0  0  0  0  0  0  0  0  0  0  0
    2.1617   -7.1738   27.3198 C   0  0  0  0  0  0  0  0  0  0  0  0
    2.2471   -8.4711   15.6599 C   0  0  0  0  0  0  0  0  0  0  0  0
    3.7927   -9.9560   28.6359 N   0  0  0  0  0  0  0  0  0  0  0  0
  1 13  1  0
  1 27  1  0
  2  3  4  0
  2  8  4  0
  3 12  1  0
  3 24  4  0
  4 14  1  0
  4 17  1  0
  5  7  4  0
  5  8  4  0
  6 17  1  0
  6 26  1  0
  7 24  4  0
  9 19  4  0
  9 20  4  0
  9 21  4  0
 10 12  4  0
 10 15  4  0
 11 12  4  0
 11 23  4  0
 14 19  1  0
 15 27  4  0
 16 18  1  0
 16 25  4  0
 16 28  4  0
 19 26  4  0
 20 22  4  0
 20 28  4  0
 21 25  4  0
 22 26  4  0
 23 27  4  0
M  END
$$$$

 Created by Python create_sdf_string function

 28 34  0  0  0  0  0  0  0  0999 V2000
    0.9106   -8.7149   15.2988 O   0  0  0  0  0  0  0  0  0  0  0  0
    6.8172   -8.0054   17.8975 C   0  0  0  0  0  0  0  0  0  0  0  0
    6.2461   -7.5469   16.7569 C   0  0  0  0  0  0  0  0  0  0  0  0
    1.7071   -4.4327   27.9913 C   0  0  0  0  0  0  0  0  0  0  0  0
    8.8676   -6.9348   17.3703 N   0  0  0  0  0  0  0  0  0  0  0  0
    1.3920   -6.4023   26.5259 C   0  0  0  0  0  0  0  0  0  0  0  0
    8.3202   -6.4211   16.2646 C   0  0  0  0  0  0  0  0  0  0  0  0
    8.0561   -7.7387   18.1647 C   0  0  0  0  0  0  0  0  0  0  0  0
    3.5203   -7.6100   29.0485 C   0  0  0  0  0  0  0  0  0  0  0  0
    4.0054   -8.6653   17.1754 C   0  0  0  0  0  0  0  0  0  0  0  0
    4.2713   -7.4271   15.1019 C   0  0  0  0  0  0  0  0  0  0  0  0
    4.8814   -7.8669   16.3644 C   0  0  0  0  0  0  0  0  0  0  0  0
    0.3158   -8.4223   14.1401 C   0  0  0  0  0  0  0  0  0  0  0  0
    2.7290   -5.2207   28.6828 C   0  0  0  0  0  0  0  0  0  0  0  0
    2.8012   -8.9636   16.8617 C   0  0  0  0  0  0  0  0  0  0  0  0
    4.5711  -10.0716   29.7670 C   0  0  0  0  0  0  0  0  0  0  0  0
    1.1799   -4.9757   26.7002 C   0  0  0  0  0  0  0  0  0  0  0  0
    5.0409  -11.2489   30.0504 O   0  0  0  0  0  0  0  0  0  0  0  0
    2.8270   -6.5734   28.3807 C   0  0  0  0  0  0  0  0  0  0  0  0
    3.2465   -8.7634   28.3518 C   0  0  0  0  0  0  0  0  0  0  0  0
    4.2236   -7.7009   30.3140 C   0  0  0  0  0  0  0  0  0  0  0  0
    2.4652   -8.5131   27.2996 N   0  0  0  0  0  0  0  0  0  0  0  0
    3.0173   -7.7493   14.7693 C   0  0  0  0  0  0  0  0  0  0  0  0
    6.9938   -6.6833   15.8392 C   0  0  0  0  0  0  0  0  0  0  0  0
    4.7678   -8.8959   30.6070 C   0  0  0  0  0  0  0  0  0  0  0  0
    2.1710   -7.1437   27.3422 C   0  0  0  0  0  0  0  0  0  0  0  0
    2.2713   -8.4860   15.7212 C   0  0  0  0  0  0  0  0  0  0  0  0
    3.8202   -9.9444   28.6827 N   0  0  0  0  0  0  0  0  0  0  0  0
  1 13  1  0
  1 27  1  0
  2  3  4  0
  2  8  4  0
  3 12  1  0
  4 14  1  0
  4 17  1  0
  4 24  4  0
  5  7  4  0
  5  8  4  0
  5 13  3  0
  6 17  1  0
  6 26  1  0
  7 24  4  0
  9 19  4  0
  9 20  4  0
  9 21  4  0
 10 12  4  0
 10 15  4  0
 11 12  4  0
 11 23  4  0
 14 19  1  0
 15 23  1  0
 15 27  4  0
 16 18  1  0
 16 25  4  0
 16 28  4  0
 19 26  4  0
 20 22  4  0
 20 28  4  0
 21 23  2  0
 21 25  4  0
 22 26  4  0
 23 27  4  0
M  END
$$$$

 Created by Python create_sdf_string function

 28 31  0  0  0  0  0  0  0  0999 V2000
    0.9301   -8.7400   15.3366 O   0  0  0  0  0  0  0  0  0  0  0  0
    6.7905   -8.0283   17.9000 C   0  0  0  0  0  0  0  0  0  0  0  0
    6.2326   -7.5343   16.7220 C   0  0  0  0  0  0  0  0  0  0  0  0
    1.7135   -4.4100   27.9948 C   0  0  0  0  0  0  0  0  0  0  0  0
    8.8452   -6.9392   17.3825 N   0  0  0  0  0  0  0  0  0  0  0  0
    1.3572   -6.4264   26.4935 C   0  0  0  0  0  0  0  0  0  0  0  0
    8.3150   -6.4076   16.2392 C   0  0  0  0  0  0  0  0  0  0  0  0
    8.1047   -7.7399   18.1986 C   0  0  0  0  0  0  0  0  0  0  0  0
    3.4968   -7.6231   29.0912 C   0  0  0  0  0  0  0  0  0  0  0  0
    4.0594   -8.6550   17.1916 C   0  0  0  0  0  0  0  0  0  0  0  0
    4.3166   -7.4222   15.1330 C   0  0  0  0  0  0  0  0  0  0  0  0
    4.8754   -7.8693   16.3592 C   0  0  0  0  0  0  0  0  0  0  0  0
    0.3487   -8.4116   14.1475 C   0  0  0  0  0  0  0  0  0  0  0  0
    2.7290   -5.2285   28.6763 C   0  0  0  0  0  0  0  0  0  0  0  0
    2.7638   -8.9460   16.8307 C   0  0  0  0  0  0  0  0  0  0  0  0
    4.5597  -10.0537   29.7819 C   0  0  0  0  0  0  0  0  0  0  0  0
    1.1878   -4.9839   26.6984 C   0  0  0  0  0  0  0  0  0  0  0  0
    5.0315  -11.1957   30.0490 O   0  0  0  0  0  0  0  0  0  0  0  0
    2.8167   -6.5880   28.4021 C   0  0  0  0  0  0  0  0  0  0  0  0
    3.2738   -8.7711   28.3537 C   0  0  0  0  0  0  0  0  0  0  0  0
    4.2267   -7.6956   30.2485 C   0  0  0  0  0  0  0  0  0  0  0  0
    2.4820   -8.4983   27.3168 N   0  0  0  0  0  0  0  0  0  0  0  0
    2.9918   -7.7581   14.8047 C   0  0  0  0  0  0  0  0  0  0  0  0
    7.0054   -6.6999   15.8781 C   0  0  0  0  0  0  0  0  0  0  0  0
    4.7867   -8.9299   30.6198 C   0  0  0  0  0  0  0  0  0  0  0  0
    2.1648   -7.1478   27.3258 C   0  0  0  0  0  0  0  0  0  0  0  0
    2.2510   -8.4763   15.6622 C   0  0  0  0  0  0  0  0  0  0  0  0
    3.7981   -9.9415   28.6717 N   0  0  0  0  0  0  0  0  0  0  0  0
  1 13  1  0
  1 27  1  0
  2  3  4  0
  2  8  4  0
  3 12  1  0
  3 24  4  0
  4 14  1  0
  4 17  1  0
  5  7  4  0
  5  8  4  0
  6 17  1  0
  6 26  1  0
  7 24  4  0
  9 19  4  0
  9 20  4  0
  9 21  4  0
 10 12  4  0
 10 15  4  0
 11 12  4  0
 11 23  4  0
 14 19  1  0
 15 27  4  0
 16 18  1  0
 16 25  4  0
 16 28  4  0
 19 26  4  0
 20 22  4  0
 20 28  4  0
 21 25  4  0
 22 26  4  0
 23 27  4  0
M  END
$$$$

 Created by Python create_sdf_string function

 28 34  0  0  0  0  0  0  0  0999 V2000
    0.9185   -8.7354   15.3152 O   0  0  0  0  0  0  0  0  0  0  0  0
    6.8134   -7.9783   17.9269 C   0  0  0  0  0  0  0  0  0  0  0  0
    6.2417   -7.6009   16.7312 C   0  0  0  0  0  0  0  0  0  0  0  0
    1.7052   -4.3880   27.9962 C   0  0  0  0  0  0  0  0  0  0  0  0
    8.8678   -6.9511   17.3819 N   0  0  0  0  0  0  0  0  0  0  0  0
    1.3724   -6.4323   26.5365 C   0  0  0  0  0  0  0  0  0  0  0  0
    8.3136   -6.4154   16.2868 C   0  0  0  0  0  0  0  0  0  0  0  0
    8.1104   -7.7361   18.2028 C   0  0  0  0  0  0  0  0  0  0  0  0
    3.5128   -7.6585   29.0625 C   0  0  0  0  0  0  0  0  0  0  0  0
    4.0844   -8.6387   17.2021 C   0  0  0  0  0  0  0  0  0  0  0  0
    4.3011   -7.3995   15.1753 C   0  0  0  0  0  0  0  0  0  0  0  0
    4.8869   -7.9132   16.3522 C   0  0  0  0  0  0  0  0  0  0  0  0
    0.3107   -8.4011   14.1905 C   0  0  0  0  0  0  0  0  0  0  0  0
    2.7404   -5.2316   28.6281 C   0  0  0  0  0  0  0  0  0  0  0  0
    2.7757   -8.9695   16.8273 C   0  0  0  0  0  0  0  0  0  0  0  0
    4.5563  -10.0409   29.8184 C   0  0  0  0  0  0  0  0  0  0  0  0
    1.1724   -4.9930   26.6892 C   0  0  0  0  0  0  0  0  0  0  0  0
    5.0296  -11.2019   30.0190 O   0  0  0  0  0  0  0  0  0  0  0  0
    2.7940   -6.5636   28.4087 C   0  0  0  0  0  0  0  0  0  0  0  0
    3.2343   -8.8122   28.3698 C   0  0  0  0  0  0  0  0  0  0  0  0
    4.2178   -7.6326   30.2363 C   0  0  0  0  0  0  0  0  0  0  0  0
    2.4994   -8.5090   27.3391 N   0  0  0  0  0  0  0  0  0  0  0  0
    3.0484   -7.7846   14.8110 C   0  0  0  0  0  0  0  0  0  0  0  0
    7.0274   -6.7361   15.8606 C   0  0  0  0  0  0  0  0  0  0  0  0
    4.7823   -8.9697   30.6218 C   0  0  0  0  0  0  0  0  0  0  0  0
    2.1794   -7.1231   27.2953 C   0  0  0  0  0  0  0  0  0  0  0  0
    2.2413   -8.4934   15.6451 C   0  0  0  0  0  0  0  0  0  0  0  0
    3.8041   -9.9586   28.6923 N   0  0  0  0  0  0  0  0  0  0  0  0
  1 13  1  0
  1 27  1  0
  2  3  4  0
  2  8  4  0
  3 12  1  0
  3 21  2  0
  3 24  4  0
  4 14  1  0
  4 17  1  0
  5  7  4  0
  5  8  4  0
  6 17  1  0
  7 24  4  0
  8 21  1  0
  9 19  4  0
  9 20  4  0
  9 21  4  0
 10 12  4  0
 10 15  4  0
 11 12  4  0
 11 23  4  0
 14 19  1  0
 15 27  4  0
 16 17  1  0
 16 18  1  0
 16 25  4  0
 16 28  4  0
 19 26  4  0
 20 22  4  0
 20 28  4  0
 21 25  4  0
 22 26  4  0
 23 25  4  0
 23 27  4  0
M  END
$$$$

 Created by Python create_sdf_string function

 28 31  0  0  0  0  0  0  0  0999 V2000
    0.9475   -8.7449   15.3225 O   0  0  0  0  0  0  0  0  0  0  0  0
    6.8063   -8.0164   17.9176 C   0  0  0  0  0  0  0  0  0  0  0  0
    6.2447   -7.5554   16.7301 C   0  0  0  0  0  0  0  0  0  0  0  0
    1.7185   -4.3971   27.9934 C   0  0  0  0  0  0  0  0  0  0  0  0
    8.8590   -6.9403   17.3938 N   0  0  0  0  0  0  0  0  0  0  0  0
    1.3439   -6.4282   26.5168 C   0  0  0  0  0  0  0  0  0  0  0  0
    8.3129   -6.4225   16.2607 C   0  0  0  0  0  0  0  0  0  0  0  0
    8.1159   -7.7303   18.2137 C   0  0  0  0  0  0  0  0  0  0  0  0
    3.4916   -7.6366   29.0939 C   0  0  0  0  0  0  0  0  0  0  0  0
    4.0640   -8.6605   17.1899 C   0  0  0  0  0  0  0  0  0  0  0  0
    4.3229   -7.4249   15.1644 C   0  0  0  0  0  0  0  0  0  0  0  0
    4.8931   -7.8814   16.3720 C   0  0  0  0  0  0  0  0  0  0  0  0
    0.3232   -8.3992   14.1916 C   0  0  0  0  0  0  0  0  0  0  0  0
    2.7458   -5.2226   28.6441 C   0  0  0  0  0  0  0  0  0  0  0  0
    2.7835   -8.9536   16.8298 C   0  0  0  0  0  0  0  0  0  0  0  0
    4.5465  -10.0478   29.7991 C   0  0  0  0  0  0  0  0  0  0  0  0
    1.1849   -4.9810   26.7007 C   0  0  0  0  0  0  0  0  0  0  0  0
    5.0254  -11.1790   30.0406 O   0  0  0  0  0  0  0  0  0  0  0  0
    2.8121   -6.5957   28.4071 C   0  0  0  0  0  0  0  0  0  0  0  0
    3.2625   -8.7825   28.3607 C   0  0  0  0  0  0  0  0  0  0  0  0
    4.2410   -7.6786   30.2366 C   0  0  0  0  0  0  0  0  0  0  0  0
    2.4857   -8.5040   27.3195 N   0  0  0  0  0  0  0  0  0  0  0  0
    3.0319   -7.7584   14.8111 C   0  0  0  0  0  0  0  0  0  0  0  0
    7.0244   -6.7355   15.8728 C   0  0  0  0  0  0  0  0  0  0  0  0
    4.7915   -8.9205   30.6370 C   0  0  0  0  0  0  0  0  0  0  0  0
    2.1746   -7.1608   27.3286 C   0  0  0  0  0  0  0  0  0  0  0  0
    2.2552   -8.4869   15.6484 C   0  0  0  0  0  0  0  0  0  0  0  0
    3.7810   -9.9520   28.6973 N   0  0  0  0  0  0  0  0  0  0  0  0
  1 13  1  0
  1 27  1  0
  2  3  4  0
  2  8  4  0
  3 12  1  0
  3 24  4  0
  4 14  1  0
  4 17  1  0
  5  7  4  0
  5  8  4  0
  6 17  1  0
  6 26  1  0
  7 24  4  0
  9 19  4  0
  9 20  4  0
  9 21  4  0
 10 12  4  0
 10 15  4  0
 11 12  4  0
 11 23  4  0
 14 19  1  0
 15 27  4  0
 16 18  1  0
 16 25  4  0
 16 28  4  0
 19 26  4  0
 20 22  4  0
 20 28  4  0
 21 25  4  0
 22 26  4  0
 23 27  4  0
M  END
$$$$

 Created by Python create_sdf_string function

 28 33  0  0  0  0  0  0  0  0999 V2000
    0.9202   -8.7614   15.3410 O   0  0  0  0  0  0  0  0  0  0  0  0
    6.7787   -8.0341   17.9261 C   0  0  0  0  0  0  0  0  0  0  0  0
    6.2257   -7.5891   16.7181 C   0  0  0  0  0  0  0  0  0  0  0  0
    1.6950   -4.4110   28.0099 C   0  0  0  0  0  0  0  0  0  0  0  0
    8.8914   -6.9627   17.4047 N   0  0  0  0  0  0  0  0  0  0  0  0
    1.3254   -6.4265   26.5068 C   0  0  0  0  0  0  0  0  0  0  0  0
    8.3237   -6.4610   16.2495 C   0  0  0  0  0  0  0  0  0  0  0  0
    8.1134   -7.7042   18.2010 C   0  0  0  0  0  0  0  0  0  0  0  0
    3.4735   -7.6529   29.0878 C   0  0  0  0  0  0  0  0  0  0  0  0
    4.0259   -8.6565   17.2032 C   0  0  0  0  0  0  0  0  0  0  0  0
    4.3138   -7.4412   15.1610 C   0  0  0  0  0  0  0  0  0  0  0  0
    4.8810   -7.9127   16.3434 C   0  0  0  0  0  0  0  0  0  0  0  0
    0.3355   -8.3785   14.1947 C   0  0  0  0  0  0  0  0  0  0  0  0
    2.7466   -5.2415   28.6496 C   0  0  0  0  0  0  0  0  0  0  0  0
    2.7934   -8.9702   16.8405 C   0  0  0  0  0  0  0  0  0  0  0  0
    4.5364  -10.0518   29.8032 C   0  0  0  0  0  0  0  0  0  0  0  0
    1.2300   -4.9622   26.6737 C   0  0  0  0  0  0  0  0  0  0  0  0
    5.0149  -11.1950   30.0605 O   0  0  0  0  0  0  0  0  0  0  0  0
    2.7859   -6.6042   28.4121 C   0  0  0  0  0  0  0  0  0  0  0  0
    3.2404   -8.7725   28.3667 C   0  0  0  0  0  0  0  0  0  0  0  0
    4.2273   -7.7112   30.2434 C   0  0  0  0  0  0  0  0  0  0  0  0
    3.0471   -7.7346   14.7734 C   0  0  0  0  0  0  0  0  0  0  0  0
    7.0321   -6.7796   15.8729 C   0  0  0  0  0  0  0  0  0  0  0  0
    4.7770   -8.9229   30.6463 C   0  0  0  0  0  0  0  0  0  0  0  0
    2.1621   -7.1640   27.3255 C   0  0  0  0  0  0  0  0  0  0  0  0
    2.2369   -8.4788   15.6518 C   0  0  0  0  0  0  0  0  0  0  0  0
    3.7819   -9.9256   28.6996 N   0  0  0  0  0  0  0  0  0  0  0  0
    2.4902   -8.4810   27.3118 He  0  0  0  0  0  0  0  0  0  0  0  0
  1 13  1  0
  1 26  1  0
  2  3  4  0
  2  8  4  0
  3 12  1  0
  3 23  4  0
  4  9  1  0
  4 14  1  0
  4 17  1  0
  5  7  4  0
  5  8  4  0
  6 17  1  0
  6 25  1  0
  7 23  4  0
  9 19  4  0
  9 20  4  0
  9 21  4  0
 10 12  4  0
 10 15  4  0
 11 12  4  0
 11 22  4  0
 14 18  1  0
 14 19  1  0
 14 21  3  0
 15 26  4  0
 16 18  1  0
 16 24  4  0
 16 27  4  0
 19 25  4  0
 20 27  4  0
 21 24  4  0
 22 24  3  0
 22 26  4  0
M  END
$$$$

 Created by Python create_sdf_string function

 28 31  0  0  0  0  0  0  0  0999 V2000
    0.9397   -8.7526   15.3251 O   0  0  0  0  0  0  0  0  0  0  0  0
    6.8036   -8.0329   17.9238 C   0  0  0  0  0  0  0  0  0  0  0  0
    6.2388   -7.5784   16.7280 C   0  0  0  0  0  0  0  0  0  0  0  0
    1.7028   -4.4064   28.0049 C   0  0  0  0  0  0  0  0  0  0  0  0
    8.8522   -6.9583   17.3964 N   0  0  0  0  0  0  0  0  0  0  0  0
    1.3092   -6.4128   26.5077 C   0  0  0  0  0  0  0  0  0  0  0  0
    8.3156   -6.4665   16.2397 C   0  0  0  0  0  0  0  0  0  0  0  0
    8.1007   -7.7268   18.2264 C   0  0  0  0  0  0  0  0  0  0  0  0
    3.4708   -7.6371   29.0950 C   0  0  0  0  0  0  0  0  0  0  0  0
    4.0455   -8.6646   17.1930 C   0  0  0  0  0  0  0  0  0  0  0  0
    4.3246   -7.4425   15.1522 C   0  0  0  0  0  0  0  0  0  0  0  0
    4.8859   -7.8974   16.3666 C   0  0  0  0  0  0  0  0  0  0  0  0
    0.3415   -8.3727   14.1892 C   0  0  0  0  0  0  0  0  0  0  0  0
    2.7391   -5.2320   28.6480 C   0  0  0  0  0  0  0  0  0  0  0  0
    2.7707   -8.9558   16.8284 C   0  0  0  0  0  0  0  0  0  0  0  0
    4.5264  -10.0381   29.7979 C   0  0  0  0  0  0  0  0  0  0  0  0
    1.2304   -4.9567   26.6699 C   0  0  0  0  0  0  0  0  0  0  0  0
    5.0100  -11.1814   30.0679 O   0  0  0  0  0  0  0  0  0  0  0  0
    2.7910   -6.6095   28.4098 C   0  0  0  0  0  0  0  0  0  0  0  0
    3.2589   -8.7866   28.3634 C   0  0  0  0  0  0  0  0  0  0  0  0
    4.2210   -7.7015   30.2325 C   0  0  0  0  0  0  0  0  0  0  0  0
    2.4739   -8.5077   27.3014 O   0  0  0  0  0  0  0  0  0  0  0  0
    3.0257   -7.7432   14.7968 C   0  0  0  0  0  0  0  0  0  0  0  0
    7.0315   -6.7790   15.8806 C   0  0  0  0  0  0  0  0  0  0  0  0
    4.7735   -8.9144   30.6347 C   0  0  0  0  0  0  0  0  0  0  0  0
    2.1462   -7.1578   27.3196 C   0  0  0  0  0  0  0  0  0  0  0  0
    2.2477   -8.4798   15.6477 C   0  0  0  0  0  0  0  0  0  0  0  0
    3.7724   -9.9444   28.6952 N   0  0  0  0  0  0  0  0  0  0  0  0
  1 13  1  0
  1 27  1  0
  2  3  4  0
  2  8  4  0
  3 12  1  0
  3 24  4  0
  4 14  1  0
  4 17  1  0
  5  7  4  0
  5  8  4  0
  6 17  1  0
  6 26  1  0
  7 24  4  0
  9 19  4  0
  9 20  4  0
  9 21  4  0
 10 12  4  0
 10 15  4  0
 11 12  4  0
 11 23  4  0
 14 19  1  0
 15 27  4  0
 16 18  1  0
 16 25  4  0
 16 28  4  0
 19 26  4  0
 20 22  4  0
 20 28  4  0
 21 25  4  0
 22 26  4  0
 23 27  4  0
M  END
$$$$

 Created by Python create_sdf_string function

 28 34  0  0  0  0  0  0  0  0999 V2000
    0.9509   -8.7646   15.3314 O   0  0  0  0  0  0  0  0  0  0  0  0
    6.2289   -7.5642   16.7258 C   0  0  0  0  0  0  0  0  0  0  0  0
    1.6948   -4.4245   27.9939 C   0  0  0  0  0  0  0  0  0  0  0  0
    8.8419   -6.9595   17.3858 N   0  0  0  0  0  0  0  0  0  0  0  0
    1.3263   -6.4121   26.5258 C   0  0  0  0  0  0  0  0  0  0  0  0
    8.3339   -6.4667   16.2179 C   0  0  0  0  0  0  0  0  0  0  0  0
    8.1043   -7.7024   18.2198 C   0  0  0  0  0  0  0  0  0  0  0  0
    3.4359   -7.6425   29.1001 C   0  0  0  0  0  0  0  0  0  0  0  0
    4.0475   -8.6601   17.2155 C   0  0  0  0  0  0  0  0  0  0  0  0
    4.3282   -7.4401   15.1574 C   0  0  0  0  0  0  0  0  0  0  0  0
    4.8783   -7.9056   16.3870 C   0  0  0  0  0  0  0  0  0  0  0  0
    0.3452   -8.3593   14.2011 C   0  0  0  0  0  0  0  0  0  0  0  0
    2.7459   -5.2417   28.6326 C   0  0  0  0  0  0  0  0  0  0  0  0
    2.7792   -8.9395   16.8371 C   0  0  0  0  0  0  0  0  0  0  0  0
    4.5330  -10.0547   29.7847 C   0  0  0  0  0  0  0  0  0  0  0  0
    1.2370   -4.9416   26.6809 C   0  0  0  0  0  0  0  0  0  0  0  0
    5.0202  -11.1718   30.0581 O   0  0  0  0  0  0  0  0  0  0  0  0
    2.7585   -6.5985   28.3918 C   0  0  0  0  0  0  0  0  0  0  0  0
    3.2548   -8.7852   28.3319 C   0  0  0  0  0  0  0  0  0  0  0  0
    4.2246   -7.7225   30.2386 C   0  0  0  0  0  0  0  0  0  0  0  0
    2.4560   -8.4883   27.2920 O   0  0  0  0  0  0  0  0  0  0  0  0
    3.0146   -7.7504   14.8018 C   0  0  0  0  0  0  0  0  0  0  0  0
    7.0620   -6.7883   15.8837 C   0  0  0  0  0  0  0  0  0  0  0  0
    4.7656   -8.9155   30.6535 C   0  0  0  0  0  0  0  0  0  0  0  0
    2.1366   -7.1579   27.3496 C   0  0  0  0  0  0  0  0  0  0  0  0
    2.2556   -8.5022   15.6656 C   0  0  0  0  0  0  0  0  0  0  0  0
    3.7776   -9.9508   28.6905 N   0  0  0  0  0  0  0  0  0  0  0  0
    6.7839   -8.0344   17.9263 He  0  0  0  0  0  0  0  0  0  0  0  0
  1 12  1  0
  1 20  1  0
  1 26  1  0
  2 11  1  0
  2 23  4  0
  3 13  1  0
  3 16  1  0
  4  6  4  0
  4  7  4  0
  5 16  1  0
  5 25  1  0
  6 23  4  0
  6 26  4  0
  8 18  4  0
  8 19  4  0
  8 20  4  0
  8 22  2  0
  9 11  4  0
  9 14  4  0
 10 11  4  0
 10 14  4  0
 10 22  4  0
 11 13  4  0
 13 18  1  0
 14 26  4  0
 15 17  1  0
 15 24  4  0
 15 27  4  0
 18 25  4  0
 19 21  4  0
 19 27  4  0
 20 24  4  0
 22 26  4  0
 24 26  1  0
M  END
$$$$

 Created by Python create_sdf_string function

 28 31  0  0  0  0  0  0  0  0999 V2000
    0.9554   -8.7690   15.3299 O   0  0  0  0  0  0  0  0  0  0  0  0
    6.7980   -8.0255   17.9223 C   0  0  0  0  0  0  0  0  0  0  0  0
    6.2391   -7.5709   16.7324 C   0  0  0  0  0  0  0  0  0  0  0  0
    1.7037   -4.4105   27.9999 C   0  0  0  0  0  0  0  0  0  0  0  0
    8.8406   -6.9597   17.3993 N   0  0  0  0  0  0  0  0  0  0  0  0
    1.2913   -6.4027   26.5043 C   0  0  0  0  0  0  0  0  0  0  0  0
    8.3249   -6.4796   16.2284 C   0  0  0  0  0  0  0  0  0  0  0  0
    8.0952   -7.7203   18.2360 C   0  0  0  0  0  0  0  0  0  0  0  0
    3.4567   -7.6373   29.0918 C   0  0  0  0  0  0  0  0  0  0  0  0
    4.0464   -8.6601   17.2059 C   0  0  0  0  0  0  0  0  0  0  0  0
    4.3239   -7.4451   15.1628 C   0  0  0  0  0  0  0  0  0  0  0  0
    4.8842   -7.8928   16.3805 C   0  0  0  0  0  0  0  0  0  0  0  0
    0.3525   -8.3565   14.1971 C   0  0  0  0  0  0  0  0  0  0  0  0
    2.7381   -5.2209   28.6361 C   0  0  0  0  0  0  0  0  0  0  0  0
    2.7813   -8.9363   16.8348 C   0  0  0  0  0  0  0  0  0  0  0  0
    4.5335  -10.0482   29.7961 C   0  0  0  0  0  0  0  0  0  0  0  0
    1.2323   -4.9432   26.6655 C   0  0  0  0  0  0  0  0  0  0  0  0
    5.0240  -11.1767   30.0702 O   0  0  0  0  0  0  0  0  0  0  0  0
    2.7747   -6.6001   28.4134 C   0  0  0  0  0  0  0  0  0  0  0  0
    3.2544   -8.7843   28.3564 C   0  0  0  0  0  0  0  0  0  0  0  0
    4.2087   -7.7070   30.2297 C   0  0  0  0  0  0  0  0  0  0  0  0
    2.4621   -8.4994   27.3044 O   0  0  0  0  0  0  0  0  0  0  0  0
    3.0203   -7.7489   14.8115 C   0  0  0  0  0  0  0  0  0  0  0  0
    7.0368   -6.7830   15.8760 C   0  0  0  0  0  0  0  0  0  0  0  0
    4.7699   -8.9168   30.6441 C   0  0  0  0  0  0  0  0  0  0  0  0
    2.1189   -7.1463   27.3216 C   0  0  0  0  0  0  0  0  0  0  0  0
    2.2581   -8.4865   15.6591 C   0  0  0  0  0  0  0  0  0  0  0  0
    3.7792   -9.9519   28.6900 N   0  0  0  0  0  0  0  0  0  0  0  0
  1 13  1  0
  1 27  1  0
  2  3  4  0
  2  8  4  0
  3 12  1  0
  3 24  4  0
  4 14  1  0
  4 17  1  0
  5  7  4  0
  5  8  4  0
  6 17  1  0
  6 26  1  0
  7 24  4  0
  9 19  4  0
  9 20  4  0
  9 21  4  0
 10 12  4  0
 10 15  4  0
 11 12  4  0
 11 23  4  0
 14 19  1  0
 15 27  4  0
 16 18  1  0
 16 25  4  0
 16 28  4  0
 19 26  4  0
 20 22  4  0
 20 28  4  0
 21 25  4  0
 22 26  4  0
 23 27  4  0
M  END
$$$$

 Created by Python create_sdf_string function

 28 31  0  0  0  0  0  0  0  0999 V2000
    0.9404   -8.7565   15.3358 O   0  0  0  0  0  0  0  0  0  0  0  0
    6.8033   -8.0190   17.9357 C   0  0  0  0  0  0  0  0  0  0  0  0
    6.2472   -7.5847   16.7349 C   0  0  0  0  0  0  0  0  0  0  0  0
    1.7042   -4.4181   27.9891 C   0  0  0  0  0  0  0  0  0  0  0  0
    8.8332   -6.9683   17.3864 N   0  0  0  0  0  0  0  0  0  0  0  0
    1.2887   -6.3942   26.5122 C   0  0  0  0  0  0  0  0  0  0  0  0
    8.3038   -6.4680   16.2206 C   0  0  0  0  0  0  0  0  0  0  0  0
    8.1198   -7.7367   18.2342 C   0  0  0  0  0  0  0  0  0  0  0  0
    3.4537   -7.6289   29.0949 C   0  0  0  0  0  0  0  0  0  0  0  0
    4.0559   -8.6733   17.2200 C   0  0  0  0  0  0  0  0  0  0  0  0
    4.3278   -7.4467   15.1594 C   0  0  0  0  0  0  0  0  0  0  0  0
    4.8720   -7.8893   16.3696 C   0  0  0  0  0  0  0  0  0  0  0  0
    0.3484   -8.3407   14.1821 C   0  0  0  0  0  0  0  0  0  0  0  0
    2.7366   -5.2141   28.6419 C   0  0  0  0  0  0  0  0  0  0  0  0
    2.7864   -8.9525   16.8265 C   0  0  0  0  0  0  0  0  0  0  0  0
    4.5434  -10.0436   29.8061 C   0  0  0  0  0  0  0  0  0  0  0  0
    1.2397   -4.9415   26.6683 C   0  0  0  0  0  0  0  0  0  0  0  0
    4.9944  -11.1772   30.0592 O   0  0  0  0  0  0  0  0  0  0  0  0
    2.7718   -6.6026   28.4260 C   0  0  0  0  0  0  0  0  0  0  0  0
    3.2476   -8.7843   28.3356 C   0  0  0  0  0  0  0  0  0  0  0  0
    4.2016   -7.7261   30.2166 C   0  0  0  0  0  0  0  0  0  0  0  0
    2.4514   -8.5049   27.2934 O   0  0  0  0  0  0  0  0  0  0  0  0
    3.0348   -7.7563   14.8201 C   0  0  0  0  0  0  0  0  0  0  0  0
    7.0295   -6.7709   15.8812 C   0  0  0  0  0  0  0  0  0  0  0  0
    4.7744   -8.9201   30.6256 C   0  0  0  0  0  0  0  0  0  0  0  0
    2.1176   -7.1452   27.3055 C   0  0  0  0  0  0  0  0  0  0  0  0
    2.2553   -8.4682   15.6694 C   0  0  0  0  0  0  0  0  0  0  0  0
    3.7835   -9.9557   28.6907 N   0  0  0  0  0  0  0  0  0  0  0  0
  1 13  1  0
  1 27  1  0
  2  3  4  0
  2  8  4  0
  3 12  1  0
  3 24  4  0
  4 14  1  0
  4 17  1  0
  5  7  4  0
  5  8  4  0
  6 17  1  0
  6 26  1  0
  7 24  4  0
  9 19  4  0
  9 20  4  0
  9 21  4  0
 10 12  4  0
 10 15  4  0
 11 12  4  0
 11 23  4  0
 14 19  1  0
 15 27  4  0
 16 18  1  0
 16 25  4  0
 16 28  4  0
 19 26  4  0
 20 22  4  0
 20 28  4  0
 21 25  4  0
 22 26  4  0
 23 27  4  0
M  END
$$$$

 Created by Python create_sdf_string function

 28 31  0  0  0  0  0  0  0  0999 V2000
    0.9649   -8.7397   15.3176 O   0  0  0  0  0  0  0  0  0  0  0  0
    6.8068   -8.0261   17.9350 C   0  0  0  0  0  0  0  0  0  0  0  0
    6.2436   -7.5740   16.7463 C   0  0  0  0  0  0  0  0  0  0  0  0
    1.7039   -4.3981   27.9868 C   0  0  0  0  0  0  0  0  0  0  0  0
    8.8229   -6.9686   17.3878 N   0  0  0  0  0  0  0  0  0  0  0  0
    1.2775   -6.4020   26.5122 C   0  0  0  0  0  0  0  0  0  0  0  0
    8.3089   -6.4751   16.2334 C   0  0  0  0  0  0  0  0  0  0  0  0
    8.1086   -7.7434   18.2446 C   0  0  0  0  0  0  0  0  0  0  0  0
    3.4584   -7.6401   29.0894 C   0  0  0  0  0  0  0  0  0  0  0  0
    4.0523   -8.6706   17.2109 C   0  0  0  0  0  0  0  0  0  0  0  0
    4.3299   -7.4442   15.1622 C   0  0  0  0  0  0  0  0  0  0  0  0
    4.8860   -7.8949   16.3815 C   0  0  0  0  0  0  0  0  0  0  0  0
    0.3573   -8.3378   14.1836 C   0  0  0  0  0  0  0  0  0  0  0  0
    2.7224   -5.2142   28.6333 C   0  0  0  0  0  0  0  0  0  0  0  0
    2.7838   -8.9427   16.8311 C   0  0  0  0  0  0  0  0  0  0  0  0
    4.5374  -10.0481   29.8009 C   0  0  0  0  0  0  0  0  0  0  0  0
    1.2338   -4.9341   26.6579 C   0  0  0  0  0  0  0  0  0  0  0  0
    5.0057  -11.1798   30.0771 O   0  0  0  0  0  0  0  0  0  0  0  0
    2.7719   -6.6072   28.4118 C   0  0  0  0  0  0  0  0  0  0  0  0
    3.2609   -8.7899   28.3655 C   0  0  0  0  0  0  0  0  0  0  0  0
    4.2064   -7.7127   30.2194 C   0  0  0  0  0  0  0  0  0  0  0  0
    2.4582   -8.5117   27.3022 O   0  0  0  0  0  0  0  0  0  0  0  0
    3.0421   -7.7464   14.8261 C   0  0  0  0  0  0  0  0  0  0  0  0
    7.0242   -6.7744   15.8860 C   0  0  0  0  0  0  0  0  0  0  0  0
    4.7710   -8.9075   30.6227 C   0  0  0  0  0  0  0  0  0  0  0  0
    2.1232   -7.1447   27.3209 C   0  0  0  0  0  0  0  0  0  0  0  0
    2.2576   -8.4730   15.6589 C   0  0  0  0  0  0  0  0  0  0  0  0
    3.7841   -9.9532   28.6968 N   0  0  0  0  0  0  0  0  0  0  0  0
  1 13  1  0
  1 27  1  0
  2  3  4  0
  2  8  4  0
  3 12  1  0
  3 24  4  0
  4 14  1  0
  4 17  1  0
  5  7  4  0
  5  8  4  0
  6 17  1  0
  6 26  1  0
  7 24  4  0
  9 19  4  0
  9 20  4  0
  9 21  4  0
 10 12  4  0
 10 15  4  0
 11 12  4  0
 11 23  4  0
 14 19  1  0
 15 27  4  0
 16 18  1  0
 16 25  4  0
 16 28  4  0
 19 26  4  0
 20 22  4  0
 20 28  4  0
 21 25  4  0
 22 26  4  0
 23 27  4  0
M  END
$$$$

 Created by Python create_sdf_string function

 28 31  0  0  0  0  0  0  0  0999 V2000
    0.9642   -8.7375   15.3301 O   0  0  0  0  0  0  0  0  0  0  0  0
    6.8045   -8.0157   17.9389 C   0  0  0  0  0  0  0  0  0  0  0  0
    6.2378   -7.5812   16.7452 C   0  0  0  0  0  0  0  0  0  0  0  0
    1.7048   -4.4087   27.9814 C   0  0  0  0  0  0  0  0  0  0  0  0
    8.8360   -6.9939   17.3934 N   0  0  0  0  0  0  0  0  0  0  0  0
    1.2735   -6.3939   26.5009 C   0  0  0  0  0  0  0  0  0  0  0  0
    8.3036   -6.4769   16.2384 C   0  0  0  0  0  0  0  0  0  0  0  0
    8.1057   -7.7564   18.2569 C   0  0  0  0  0  0  0  0  0  0  0  0
    3.4664   -7.6336   29.0844 C   0  0  0  0  0  0  0  0  0  0  0  0
    4.0631   -8.6665   17.2018 C   0  0  0  0  0  0  0  0  0  0  0  0
    4.3405   -7.4415   15.1742 C   0  0  0  0  0  0  0  0  0  0  0  0
    4.8783   -7.8919   16.3844 C   0  0  0  0  0  0  0  0  0  0  0  0
    0.3457   -8.3473   14.1838 C   0  0  0  0  0  0  0  0  0  0  0  0
    2.7215   -5.2104   28.6294 C   0  0  0  0  0  0  0  0  0  0  0  0
    2.7699   -8.9503   16.8391 C   0  0  0  0  0  0  0  0  0  0  0  0
    4.5481  -10.0413   29.7992 C   0  0  0  0  0  0  0  0  0  0  0  0
    1.2314   -4.9367   26.6545 C   0  0  0  0  0  0  0  0  0  0  0  0
    5.0011  -11.1725   30.0809 O   0  0  0  0  0  0  0  0  0  0  0  0
    2.7716   -6.6052   28.4166 C   0  0  0  0  0  0  0  0  0  0  0  0
    3.2590   -8.7818   28.3660 C   0  0  0  0  0  0  0  0  0  0  0  0
    4.1995   -7.7134   30.2170 C   0  0  0  0  0  0  0  0  0  0  0  0
    2.4491   -8.5166   27.2942 O   0  0  0  0  0  0  0  0  0  0  0  0
    3.0472   -7.7379   14.8304 C   0  0  0  0  0  0  0  0  0  0  0  0
    7.0171   -6.7642   15.8842 C   0  0  0  0  0  0  0  0  0  0  0  0
    4.7727   -8.9180   30.6312 C   0  0  0  0  0  0  0  0  0  0  0  0
    2.1245   -7.1547   27.3109 C   0  0  0  0  0  0  0  0  0  0  0  0
    2.2562   -8.4744   15.6552 C   0  0  0  0  0  0  0  0  0  0  0  0
    3.7822   -9.9502   28.6952 N   0  0  0  0  0  0  0  0  0  0  0  0
  1 13  1  0
  1 27  1  0
  2  3  4  0
  2  8  4  0
  3 12  1  0
  3 24  4  0
  4 14  1  0
  4 17  1  0
  5  7  4  0
  5  8  4  0
  6 17  1  0
  6 26  1  0
  7 24  4  0
  9 19  4  0
  9 20  4  0
  9 21  4  0
 10 15  4  0
 11 12  4  0
 11 23  4  0
 14 19  1  0
 15 27  4  0
 16 18  1  0
 16 24  2  0
 16 25  4  0
 16 28  4  0
 19 26  4  0
 20 22  4  0
 20 28  4  0
 21 25  4  0
 22 26  4  0
 23 27  4  0
M  END
$$$$

 Created by Python create_sdf_string function

 28 31  0  0  0  0  0  0  0  0999 V2000
    0.9713   -8.7322   15.3150 O   0  0  0  0  0  0  0  0  0  0  0  0
    6.8055   -8.0267   17.9415 C   0  0  0  0  0  0  0  0  0  0  0  0
    6.2448   -7.5719   16.7563 C   0  0  0  0  0  0  0  0  0  0  0  0
    1.7002   -4.3893   27.9779 C   0  0  0  0  0  0  0  0  0  0  0  0
    8.8241   -6.9900   17.3976 N   0  0  0  0  0  0  0  0  0  0  0  0
    1.2758   -6.4023   26.5154 C   0  0  0  0  0  0  0  0  0  0  0  0
    8.3137   -6.4804   16.2471 C   0  0  0  0  0  0  0  0  0  0  0  0
    8.1072   -7.7575   18.2618 C   0  0  0  0  0  0  0  0  0  0  0  0
    3.4618   -7.6338   29.0888 C   0  0  0  0  0  0  0  0  0  0  0  0
    4.0425   -8.6713   17.2016 C   0  0  0  0  0  0  0  0  0  0  0  0
    4.3413   -7.4353   15.1734 C   0  0  0  0  0  0  0  0  0  0  0  0
    4.8851   -7.8968   16.3938 C   0  0  0  0  0  0  0  0  0  0  0  0
    0.3536   -8.3466   14.1879 C   0  0  0  0  0  0  0  0  0  0  0  0
    2.7129   -5.2107   28.6231 C   0  0  0  0  0  0  0  0  0  0  0  0
    2.7728   -8.9436   16.8371 C   0  0  0  0  0  0  0  0  0  0  0  0
    4.5389  -10.0384   29.8044 C   0  0  0  0  0  0  0  0  0  0  0  0
    1.2295   -4.9300   26.6493 C   0  0  0  0  0  0  0  0  0  0  0  0
    5.0100  -11.1711   30.0922 O   0  0  0  0  0  0  0  0  0  0  0  0
    2.7727   -6.6061   28.4066 C   0  0  0  0  0  0  0  0  0  0  0  0
    3.2632   -8.7873   28.3736 C   0  0  0  0  0  0  0  0  0  0  0  0
    4.2093   -7.7014   30.2219 C   0  0  0  0  0  0  0  0  0  0  0  0
    2.4591   -8.5186   27.3095 O   0  0  0  0  0  0  0  0  0  0  0  0
    3.0451   -7.7338   14.8297 C   0  0  0  0  0  0  0  0  0  0  0  0
    7.0187   -6.7700   15.8961 C   0  0  0  0  0  0  0  0  0  0  0  0
    4.7721   -8.9008   30.6288 C   0  0  0  0  0  0  0  0  0  0  0  0
    2.1252   -7.1517   27.3203 C   0  0  0  0  0  0  0  0  0  0  0  0
    2.2568   -8.4703   15.6543 C   0  0  0  0  0  0  0  0  0  0  0  0
    3.7839   -9.9540   28.7002 N   0  0  0  0  0  0  0  0  0  0  0  0
  1 13  1  0
  1 27  1  0
  2  3  4  0
  2  8  4  0
  3 12  1  0
  3 24  4  0
  4 14  1  0
  4 17  1  0
  5  7  4  0
  5  8  4  0
  6 17  1  0
  6 26  1  0
  7 24  4  0
  9 19  4  0
  9 20  4  0
  9 21  4  0
 10 12  4  0
 10 15  4  0
 11 12  4  0
 11 23  4  0
 14 19  1  0
 15 27  4  0
 16 18  1  0
 16 25  4  0
 16 28  4  0
 19 26  4  0
 20 22  4  0
 20 28  4  0
 21 25  4  0
 22 26  4  0
 23 27  4  0
M  END
$$$$

 Created by Python create_sdf_string function

 28 33  0  0  0  0  0  0  0  0999 V2000
    0.9633   -8.7330   15.3078 O   0  0  0  0  0  0  0  0  0  0  0  0
    6.8027   -8.0280   17.9438 C   0  0  0  0  0  0  0  0  0  0  0  0
    6.2544   -7.5768   16.7506 C   0  0  0  0  0  0  0  0  0  0  0  0
    1.6995   -4.3883   27.9777 C   0  0  0  0  0  0  0  0  0  0  0  0
    8.8236   -6.9899   17.3991 N   0  0  0  0  0  0  0  0  0  0  0  0
    1.2726   -6.4032   26.5098 C   0  0  0  0  0  0  0  0  0  0  0  0
    8.3141   -6.4847   16.2476 C   0  0  0  0  0  0  0  0  0  0  0  0
    8.1048   -7.7612   18.2613 C   0  0  0  0  0  0  0  0  0  0  0  0
    3.4546   -7.6374   29.0888 C   0  0  0  0  0  0  0  0  0  0  0  0
    4.0450   -8.6699   17.2029 C   0  0  0  0  0  0  0  0  0  0  0  0
    4.3394   -7.4367   15.1733 C   0  0  0  0  0  0  0  0  0  0  0  0
    4.8822   -7.8946   16.3911 C   0  0  0  0  0  0  0  0  0  0  0  0
    0.3502   -8.3522   14.1939 C   0  0  0  0  0  0  0  0  0  0  0  0
    2.7134   -5.2169   28.6316 C   0  0  0  0  0  0  0  0  0  0  0  0
    2.7661   -8.9498   16.8397 C   0  0  0  0  0  0  0  0  0  0  0  0
    4.5391  -10.0402   29.8076 C   0  0  0  0  0  0  0  0  0  0  0  0
    1.2289   -4.9241   26.6514 C   0  0  0  0  0  0  0  0  0  0  0  0
    5.0082  -11.1671   30.0935 O   0  0  0  0  0  0  0  0  0  0  0  0
    2.7707   -6.6035   28.4061 C   0  0  0  0  0  0  0  0  0  0  0  0
    3.2597   -8.7865   28.3739 C   0  0  0  0  0  0  0  0  0  0  0  0
    4.2122   -7.7011   30.2227 C   0  0  0  0  0  0  0  0  0  0  0  0
    2.4643   -8.5173   27.3090 O   0  0  0  0  0  0  0  0  0  0  0  0
    3.0434   -7.7337   14.8296 C   0  0  0  0  0  0  0  0  0  0  0  0
    7.0228   -6.7784   15.8967 C   0  0  0  0  0  0  0  0  0  0  0  0
    4.7706   -8.9022   30.6279 C   0  0  0  0  0  0  0  0  0  0  0  0
    2.1248   -7.1532   27.3192 C   0  0  0  0  0  0  0  0  0  0  0  0
    2.2545   -8.4741   15.6560 C   0  0  0  0  0  0  0  0  0  0  0  0
    3.7798   -9.9576   28.6951 N   0  0  0  0  0  0  0  0  0  0  0  0
  1 13  1  0
  1 27  1  0
  2  3  4  0
  2  8  4  0
  3 12  1  0
  3 24  4  0
  4 14  1  0
  4 17  1  0
  5  7  4  0
  5  8  4  0
  6 17  1  0
  6 24  3  0
  6 26  1  0
  7 24  4  0
  9 19  4  0
  9 20  4  0
  9 21  4  0
 10 12  4  0
 10 15  4  0
 11 12  4  0
 11 23  4  0
 14 19  1  0
 15 27  4  0
 16 18  1  0
 16 25  4  0
 16 28  4  0
 17 26  1  0
 19 26  4  0
 20 22  4  0
 20 28  4  0
 21 25  4  0
 22 26  4  0
 23 27  4  0
M  END
$$$$

 Created by Python create_sdf_string function

 28 31  0  0  0  0  0  0  0  0999 V2000
    0.9767   -8.7310   15.3058 O   0  0  0  0  0  0  0  0  0  0  0  0
    6.8007   -8.0380   17.9477 C   0  0  0  0  0  0  0  0  0  0  0  0
    6.2459   -7.5774   16.7618 C   0  0  0  0  0  0  0  0  0  0  0  0
    1.7004   -4.3784   27.9725 C   0  0  0  0  0  0  0  0  0  0  0  0
    8.8188   -6.9911   17.4078 N   0  0  0  0  0  0  0  0  0  0  0  0
    1.2718   -6.4022   26.5222 C   0  0  0  0  0  0  0  0  0  0  0  0
    8.3179   -6.4892   16.2566 C   0  0  0  0  0  0  0  0  0  0  0  0
    8.1020   -7.7632   18.2661 C   0  0  0  0  0  0  0  0  0  0  0  0
    3.4626   -7.6353   29.0923 C   0  0  0  0  0  0  0  0  0  0  0  0
    4.0391   -8.6710   17.2053 C   0  0  0  0  0  0  0  0  0  0  0  0
    4.3377   -7.4340   15.1762 C   0  0  0  0  0  0  0  0  0  0  0  0
    4.8882   -7.8948   16.3950 C   0  0  0  0  0  0  0  0  0  0  0  0
    0.3614   -8.3451   14.1886 C   0  0  0  0  0  0  0  0  0  0  0  0
    2.7063   -5.2113   28.6289 C   0  0  0  0  0  0  0  0  0  0  0  0
    2.7719   -8.9426   16.8388 C   0  0  0  0  0  0  0  0  0  0  0  0
    4.5357  -10.0397   29.8099 C   0  0  0  0  0  0  0  0  0  0  0  0
    1.2250   -4.9282   26.6467 C   0  0  0  0  0  0  0  0  0  0  0  0
    5.0123  -11.1628   30.1029 O   0  0  0  0  0  0  0  0  0  0  0  0
    2.7756   -6.6045   28.4117 C   0  0  0  0  0  0  0  0  0  0  0  0
    3.2633   -8.7921   28.3785 C   0  0  0  0  0  0  0  0  0  0  0  0
    4.2130   -7.6944   30.2203 C   0  0  0  0  0  0  0  0  0  0  0  0
    2.4654   -8.5245   27.3165 O   0  0  0  0  0  0  0  0  0  0  0  0
    3.0492   -7.7301   14.8336 C   0  0  0  0  0  0  0  0  0  0  0  0
    7.0311   -6.7769   15.9038 C   0  0  0  0  0  0  0  0  0  0  0  0
    4.7724   -8.8943   30.6275 C   0  0  0  0  0  0  0  0  0  0  0  0
    2.1224   -7.1489   27.3258 C   0  0  0  0  0  0  0  0  0  0  0  0
    2.2584   -8.4692   15.6550 C   0  0  0  0  0  0  0  0  0  0  0  0
    3.7814   -9.9583   28.7053 N   0  0  0  0  0  0  0  0  0  0  0  0
  1 13  1  0
  1 27  1  0
  2  3  4  0
  2  8  4  0
  3 12  1  0
  3 24  4  0
  4 14  1  0
  4 17  1  0
  5  7  4  0
  5  8  4  0
  6 17  1  0
  6 26  1  0
  7 24  4  0
  9 19  4  0
  9 20  4  0
  9 21  4  0
 10 12  4  0
 10 15  4  0
 11 12  4  0
 11 23  4  0
 14 19  1  0
 15 27  4  0
 16 18  1  0
 16 25  4  0
 16 28  4  0
 19 26  4  0
 20 22  4  0
 20 28  4  0
 21 25  4  0
 22 26  4  0
 23 27  4  0
M  END
$$$$

 Created by Python create_sdf_string function

 28 31  0  0  0  0  0  0  0  0999 V2000
    0.9767   -8.7310   15.3058 O   0  0  0  0  0  0  0  0  0  0  0  0
    6.8007   -8.0380   17.9477 C   0  0  0  0  0  0  0  0  0  0  0  0
    6.2459   -7.5774   16.7618 C   0  0  0  0  0  0  0  0  0  0  0  0
    1.7004   -4.3784   27.9725 C   0  0  0  0  0  0  0  0  0  0  0  0
    8.8188   -6.9911   17.4078 N   0  0  0  0  0  0  0  0  0  0  0  0
    1.2718   -6.4022   26.5222 C   0  0  0  0  0  0  0  0  0  0  0  0
    8.3179   -6.4892   16.2566 C   0  0  0  0  0  0  0  0  0  0  0  0
    8.1020   -7.7632   18.2661 C   0  0  0  0  0  0  0  0  0  0  0  0
    3.4626   -7.6353   29.0923 C   0  0  0  0  0  0  0  0  0  0  0  0
    4.0391   -8.6710   17.2053 C   0  0  0  0  0  0  0  0  0  0  0  0
    4.3377   -7.4340   15.1762 C   0  0  0  0  0  0  0  0  0  0  0  0
    4.8882   -7.8948   16.3950 C   0  0  0  0  0  0  0  0  0  0  0  0
    0.3614   -8.3451   14.1886 C   0  0  0  0  0  0  0  0  0  0  0  0
    2.7063   -5.2113   28.6289 C   0  0  0  0  0  0  0  0  0  0  0  0
    2.7719   -8.9426   16.8388 C   0  0  0  0  0  0  0  0  0  0  0  0
    4.5357  -10.0397   29.8099 C   0  0  0  0  0  0  0  0  0  0  0  0
    1.2250   -4.9282   26.6467 C   0  0  0  0  0  0  0  0  0  0  0  0
    5.0123  -11.1628   30.1029 O   0  0  0  0  0  0  0  0  0  0  0  0
    2.7756   -6.6045   28.4117 C   0  0  0  0  0  0  0  0  0  0  0  0
    3.2633   -8.7921   28.3785 C   0  0  0  0  0  0  0  0  0  0  0  0
    4.2130   -7.6944   30.2203 C   0  0  0  0  0  0  0  0  0  0  0  0
    2.4654   -8.5245   27.3165 O   0  0  0  0  0  0  0  0  0  0  0  0
    3.0492   -7.7301   14.8336 C   0  0  0  0  0  0  0  0  0  0  0  0
    7.0311   -6.7769   15.9038 C   0  0  0  0  0  0  0  0  0  0  0  0
    4.7724   -8.8943   30.6275 C   0  0  0  0  0  0  0  0  0  0  0  0
    2.1224   -7.1489   27.3258 C   0  0  0  0  0  0  0  0  0  0  0  0
    2.2584   -8.4692   15.6550 C   0  0  0  0  0  0  0  0  0  0  0  0
    3.7814   -9.9583   28.7053 N   0  0  0  0  0  0  0  0  0  0  0  0
  1 13  1  0
  1 27  1  0
  2  3  4  0
  2  8  4  0
  3 12  1  0
  3 24  4  0
  4 14  1  0
  4 17  1  0
  5  7  4  0
  5  8  4  0
  6 17  1  0
  6 26  1  0
  7 24  4  0
  9 19  4  0
  9 20  4  0
  9 21  4  0
 10 12  4  0
 10 15  4  0
 11 12  4  0
 11 23  4  0
 14 19  1  0
 15 27  4  0
 16 18  1  0
 16 25  4  0
 16 28  4  0
 19 26  4  0
 20 22  4  0
 20 28  4  0
 21 25  4  0
 22 26  4  0
 23 27  4  0
M  END
$$$$

 Created by Python create_sdf_string function

 28 50  0  0  0  0  0  0  0  0999 V2000
    0.7859   -8.9151   15.9301 O   0  0  0  0  0  0  0  0  0  0  0  0
    3.8316   -7.6437   22.3192 N   0  0  0  0  0  0  0  0  0  0  0  0
    2.5170   -8.0971   21.1512 O   0  0  0  0  0  0  0  0  0  0  0  0
    4.1950   -9.1469   17.8279 C   0  0  0  0  0  0  0  0  0  0  0  0
    4.9747   -7.3640   16.0108 C   0  0  0  0  0  0  0  0  0  0  0  0
    0.3327   -8.0149   13.7321 C   0  0  0  0  0  0  0  0  0  0  0  0
    4.0548   -9.6934   29.5453 C   0  0  0  0  0  0  0  0  0  0  0  0
    4.2222   -9.1831   23.6374 P   0  0  0  0  0  0  0  0  0  0  0  0
    4.6661  -11.5380   30.5800 O   0  0  0  0  0  0  0  0  0  0  0  0
    4.8072   -8.0117   23.7577 C   0  0  0  0  0  0  0  0  0  0  0  0
    3.4058   -8.8932   28.6593 C   0  0  0  0  0  0  0  0  0  0  0  0
    4.7107   -7.6911   29.9097 C   0  0  0  0  0  0  0  0  0  0  0  0
    2.9214   -7.7762   14.6064 O   0  0  0  0  0  0  0  0  0  0  0  0
    2.5556   -9.1613   21.8536 C   0  0  0  0  0  0  0  0  0  0  0  0
    4.8065   -8.9342   30.8270 C   0  0  0  0  0  0  0  0  0  0  0  0
    3.4696  -10.1016   28.9245 N   0  0  0  0  0  0  0  0  0  0  0  0
    3.2165   -8.5348   23.3355 He  0  0  0  0  0  0  0  0  0  0  0  0
    4.2097   -8.7138   22.7747 He  0  0  0  0  0  0  0  0  0  0  0  0
    2.9066   -8.2485   22.9263 He  0  0  0  0  0  0  0  0  0  0  0  0
    2.8597   -6.9463   23.0997 He  0  0  0  0  0  0  0  0  0  0  0  0
    2.9425   -7.4158   21.8276 He  0  0  0  0  0  0  0  0  0  0  0  0
    3.8699   -7.9257   28.5875 He  0  0  0  0  0  0  0  0  0  0  0  0
    3.8448   -7.1004   15.4136 He  0  0  0  0  0  0  0  0  0  0  0  0
    2.7040   -9.4528   23.9993 He  0  0  0  0  0  0  0  0  0  0  0  0
    3.3121   -9.2737   16.1308 He  0  0  0  0  0  0  0  0  0  0  0  0
    1.3976   -8.4496   21.9485 He  0  0  0  0  0  0  0  0  0  0  0  0
    5.0551   -7.8132   22.9432 He  0  0  0  0  0  0  0  0  0  0  0  0
    2.8741   -8.5902   15.5713 He  0  0  0  0  0  0  0  0  0  0  0  0
  1  3  2  0
  1  6  1  0
  1 13  3  0
  1 14  3  0
  1 16  3  0
  2  8  2  0
  2 11  2  0
  2 13  4  0
  2 14  3  0
  2 16  3  0
  3  4  2  0
  3  5  3  0
  3  6  3  0
  3  8  3  0
  3  9  1  0
  3 12  2  0
  3 13  3  0
  3 14  1  0
  3 15  4  0
  3 16  1  0
  4  5  4  0
  4  8  3  0
  4 12  2  0
  4 16  1  0
  5 13  3  0
  6  8  1  0
  6 13  2  0
  6 14  2  0
  7  9  1  0
  7 11  3  0
  7 14  3  0
  7 16  4  0
  8  9  2  0
  8 11  4  0
  8 13  3  0
  8 14  4  0
  8 15  1  0
  9 11  4  0
  9 13  4  0
  9 14  4  0
  9 15  4  0
 10 14  4  0
 10 16  1  0
 11 13  4  0
 11 14  2  0
 11 16  4  0
 12 14  2  0
 12 15  4  0
 14 16  4  0
 15 16  2  0
M  END
$$$$

 Created by Python create_sdf_string function

 28 15  0  0  0  0  0  0  0  0999 V2000
    1.0254   -8.8663   15.9201 O   0  0  0  0  0  0  0  0  0  0  0  0
    3.9606   -8.1288   22.3656 C   0  0  0  0  0  0  0  0  0  0  0  0
    3.3110   -8.1743   24.6748 C   0  0  0  0  0  0  0  0  0  0  0  0
    4.1416   -8.0504   23.0252 C   0  0  0  0  0  0  0  0  0  0  0  0
    3.0395   -8.2891   23.5147 C   0  0  0  0  0  0  0  0  0  0  0  0
    3.2963   -7.5310   24.2743 C   0  0  0  0  0  0  0  0  0  0  0  0
    2.7799   -8.8098   20.6900 C   0  0  0  0  0  0  0  0  0  0  0  0
    3.2599   -8.3790   21.6979 C   0  0  0  0  0  0  0  0  0  0  0  0
    4.0327   -7.8313   28.3336 C   0  0  0  0  0  0  0  0  0  0  0  0
    4.1314   -8.3884   17.3782 C   0  0  0  0  0  0  0  0  0  0  0  0
    4.1175   -7.3581   15.4658 C   0  0  0  0  0  0  0  0  0  0  0  0
    4.7191   -7.5728   16.4971 C   0  0  0  0  0  0  0  0  0  0  0  0
    0.9108   -8.1981   14.4694 C   0  0  0  0  0  0  0  0  0  0  0  0
    2.6092   -8.7407   25.9603 C   0  0  0  0  0  0  0  0  0  0  0  0
    3.0070   -8.9335   17.0372 C   0  0  0  0  0  0  0  0  0  0  0  0
    4.0651  -10.1252   29.7541 C   0  0  0  0  0  0  0  0  0  0  0  0
    4.1052   -8.0623   25.1646 C   0  0  0  0  0  0  0  0  0  0  0  0
    4.2155  -11.1612   30.3546 O   0  0  0  0  0  0  0  0  0  0  0  0
    4.6686   -7.6774   25.0904 C   0  0  0  0  0  0  0  0  0  0  0  0
    3.4939   -8.8983   28.1103 C   0  0  0  0  0  0  0  0  0  0  0  0
    4.6239   -7.9353   29.8096 C   0  0  0  0  0  0  0  0  0  0  0  0
    2.3944   -8.7674   21.6782 C   0  0  0  0  0  0  0  0  0  0  0  0
    2.8628   -7.7373   15.1463 C   0  0  0  0  0  0  0  0  0  0  0  0
    2.8322   -8.7941   21.3800 C   0  0  0  0  0  0  0  0  0  0  0  0
    4.6968   -9.0076   30.5032 C   0  0  0  0  0  0  0  0  0  0  0  0
    4.5593   -7.8649   23.4923 C   0  0  0  0  0  0  0  0  0  0  0  0
    2.4328   -8.5066   16.0952 C   0  0  0  0  0  0  0  0  0  0  0  0
    3.3693  -10.1224   28.6306 N   0  0  0  0  0  0  0  0  0  0  0  0
  1 13  1  0
  1 27  1  0
  9 20  4  0
  9 21  4  0
 10 12  4  0
 10 15  4  0
 11 12  4  0
 11 23  4  0
 15 27  4  0
 16 18  1  0
 16 25  4  0
 16 28  4  0
 20 28  4  0
 21 25  4  0
 23 27  4  0
M  END
$$$$

 Created by Python create_sdf_string function

 28 30  0  0  0  0  0  0  0  0999 V2000
    1.1397   -9.2209   16.1671 O   0  0  0  0  0  0  0  0  0  0  0  0
    3.3870   -7.6621   28.0562 C   0  0  0  0  0  0  0  0  0  0  0  0
    3.5960   -8.1982   17.5432 C   0  0  0  0  0  0  0  0  0  0  0  0
    3.5429   -6.8992   15.1106 C   0  0  0  0  0  0  0  0  0  0  0  0
    0.9220   -8.1467   14.6778 C   0  0  0  0  0  0  0  0  0  0  0  0
    3.4242   -9.2486   25.4099 F   0  0  0  0  0  0  0  0  0  0  0  0
    2.8326   -8.6014   16.9201 S   0  0  0  0  0  0  0  0  0  0  0  0
    3.8858   -9.5844   29.1026 C   0  0  0  0  0  0  0  0  0  0  0  0
    4.6321  -10.6738   30.5832 O   0  0  0  0  0  0  0  0  0  0  0  0
    4.1948   -8.4985   27.8727 S   0  0  0  0  0  0  0  0  0  0  0  0
    2.7289   -7.4807   14.3180 F   0  0  0  0  0  0  0  0  0  0  0  0
    3.0561   -9.3551   21.1801 Se  0  0  0  0  0  0  0  0  0  0  0  0
    4.7558   -8.6336   30.1628 N   0  0  0  0  0  0  0  0  0  0  0  0
    2.1651   -7.6009   24.2226 C   0  0  0  0  0  0  0  0  0  0  0  0
    4.5032   -6.2008   21.3065 He  0  0  0  0  0  0  0  0  0  0  0  0
    2.6687   -8.7647   23.7608 He  0  0  0  0  0  0  0  0  0  0  0  0
    4.0217   -6.3566   24.2439 He  0  0  0  0  0  0  0  0  0  0  0  0
    2.4284   -7.8881   24.3120 He  0  0  0  0  0  0  0  0  0  0  0  0
    2.5300   -8.3297   22.7540 He  0  0  0  0  0  0  0  0  0  0  0  0
    1.9504   -8.6644   21.4738 He  0  0  0  0  0  0  0  0  0  0  0  0
    3.8113   -9.2009   20.7823 He  0  0  0  0  0  0  0  0  0  0  0  0
    4.7125   -8.2547   16.3806 He  0  0  0  0  0  0  0  0  0  0  0  0
    4.9189   -8.7674   24.8923 He  0  0  0  0  0  0  0  0  0  0  0  0
    5.6368   -8.3307   25.6495 He  0  0  0  0  0  0  0  0  0  0  0  0
    4.9751   -7.9034   29.8059 He  0  0  0  0  0  0  0  0  0  0  0  0
    1.5840   -9.5212   21.9499 He  0  0  0  0  0  0  0  0  0  0  0  0
    2.3405   -8.3812   16.4678 He  0  0  0  0  0  0  0  0  0  0  0  0
    3.3588  -10.1540   28.4161 He  0  0  0  0  0  0  0  0  0  0  0  0
  1  3  3  0
  1  5  1  0
  1  6  4  0
  1 12  2  0
  2  6  3  0
  2  9  2  0
  2 10  4  0
  2 12  3  0
  3  7  4  0
  3 14  4  0
  4  6  1  0
  4 11  3  0
  4 12  1  0
  4 13  4  0
  4 14  3  0
  5  8  2  0
  5 13  2  0
  6  7  2  0
  6  8  2  0
  6  9  2  0
  7 11  4  0
  7 12  3  0
  7 14  1  0
  8  9  1  0
  8 10  2  0
  8 12  4  0
  8 14  4  0
 10 13  3  0
 11 12  4  0
 11 14  4  0
M  END
$$$$

 Created by Python create_sdf_string function

 28 16  0  0  0  0  0  0  0  0999 V2000
    0.9738   -8.9975   16.3281 O   0  0  0  0  0  0  0  0  0  0  0  0
    4.0183   -8.5341   21.3473 C   0  0  0  0  0  0  0  0  0  0  0  0
    2.8309   -8.5132   23.2762 C   0  0  0  0  0  0  0  0  0  0  0  0
    4.0213   -7.2522   24.9082 C   0  0  0  0  0  0  0  0  0  0  0  0
    2.6422   -7.6554   24.7995 C   0  0  0  0  0  0  0  0  0  0  0  0
    3.1253   -8.6458   22.3121 C   0  0  0  0  0  0  0  0  0  0  0  0
    2.7854   -9.0295   21.2062 C   0  0  0  0  0  0  0  0  0  0  0  0
    3.7403   -8.9322   20.4378 C   0  0  0  0  0  0  0  0  0  0  0  0
    3.8539   -7.6303   27.9866 C   0  0  0  0  0  0  0  0  0  0  0  0
    3.9428   -8.4000   17.5178 C   0  0  0  0  0  0  0  0  0  0  0  0
    3.9345   -7.2768   15.3509 C   0  0  0  0  0  0  0  0  0  0  0  0
    4.4900   -7.6764   16.5700 C   0  0  0  0  0  0  0  0  0  0  0  0
    0.8828   -8.3499   14.9471 C   0  0  0  0  0  0  0  0  0  0  0  0
    3.2590   -8.3313   25.8921 C   0  0  0  0  0  0  0  0  0  0  0  0
    2.7840   -8.7414   17.1390 C   0  0  0  0  0  0  0  0  0  0  0  0
    4.1440   -9.8722   29.4839 C   0  0  0  0  0  0  0  0  0  0  0  0
    4.7013   -7.8504   25.4066 C   0  0  0  0  0  0  0  0  0  0  0  0
    4.3364  -10.7158   30.3403 O   0  0  0  0  0  0  0  0  0  0  0  0
    5.1750   -7.7296   25.9753 C   0  0  0  0  0  0  0  0  0  0  0  0
    3.8372   -8.5285   27.7365 C   0  0  0  0  0  0  0  0  0  0  0  0
    4.7425   -7.8492   29.6053 C   0  0  0  0  0  0  0  0  0  0  0  0
    2.5484   -9.2401   21.4154 C   0  0  0  0  0  0  0  0  0  0  0  0
    2.7447   -7.5764   15.0160 C   0  0  0  0  0  0  0  0  0  0  0  0
    3.2424   -9.0773   20.7881 C   0  0  0  0  0  0  0  0  0  0  0  0
    4.7887   -8.7838   30.1067 N   0  0  0  0  0  0  0  0  0  0  0  0
    2.5462   -7.5192   24.8167 C   0  0  0  0  0  0  0  0  0  0  0  0
    2.2187   -8.4279   16.2103 C   0  0  0  0  0  0  0  0  0  0  0  0
    3.5751   -9.9939   28.3805 N   0  0  0  0  0  0  0  0  0  0  0  0
  1 13  1  0
  1 27  1  0
  9 20  4  0
  9 21  4  0
 10 12  4  0
 10 15  4  0
 11 12  4  0
 11 23  4  0
 15 27  4  0
 16 18  1  0
 16 25  4  0
 16 28  4  0
 17 19  1  0
 20 28  4  0
 21 25  4  0
 23 27  4  0
M  END
$$$$

 Created by Python create_sdf_string function

 28 69  0  0  0  0  0  0  0  0999 V2000
    0.8764   -9.3737   15.9129 N   0  0  0  0  0  0  0  0  0  0  0  0
    3.7214   -8.0405   24.4637 O   0  0  0  0  0  0  0  0  0  0  0  0
    3.6443   -8.6277   23.6014 F   0  0  0  0  0  0  0  0  0  0  0  0
    3.0476   -9.2637   21.5654 N   0  0  0  0  0  0  0  0  0  0  0  0
    5.1094   -8.2446   20.8420 O   0  0  0  0  0  0  0  0  0  0  0  0
    4.2695   -7.6842   28.3219 C   0  0  0  0  0  0  0  0  0  0  0  0
    3.6632   -8.6875   17.3438 C   0  0  0  0  0  0  0  0  0  0  0  0
    3.3706   -7.8644   15.5290 C   0  0  0  0  0  0  0  0  0  0  0  0
    4.6998   -7.6829   16.4958 C   0  0  0  0  0  0  0  0  0  0  0  0
    1.5362   -8.1346   15.4321 C   0  0  0  0  0  0  0  0  0  0  0  0
    1.6366   -8.3348   24.7166 C   0  0  0  0  0  0  0  0  0  0  0  0
    2.3811   -8.6532   16.7844 F   0  0  0  0  0  0  0  0  0  0  0  0
    3.7800   -9.8338   29.1418 C   0  0  0  0  0  0  0  0  0  0  0  0
    4.4021  -10.9225   30.6178 O   0  0  0  0  0  0  0  0  0  0  0  0
    4.0449   -8.3453   27.9536 C   0  0  0  0  0  0  0  0  0  0  0  0
    5.2287   -8.3139   29.2379 C   0  0  0  0  0  0  0  0  0  0  0  0
    3.0128   -7.3712   15.3337 C   0  0  0  0  0  0  0  0  0  0  0  0
    3.1245  -10.3604   20.3188 P   0  0  0  0  0  0  0  0  0  0  0  0
    4.7122   -9.5066   30.7127 N   0  0  0  0  0  0  0  0  0  0  0  0
    2.4169   -8.5301   16.5177 C   0  0  0  0  0  0  0  0  0  0  0  0
    3.9324  -10.0131   28.8407 P   0  0  0  0  0  0  0  0  0  0  0  0
    3.3806   -9.9101   21.7226 He  0  0  0  0  0  0  0  0  0  0  0  0
    3.0393   -8.0163   23.0088 He  0  0  0  0  0  0  0  0  0  0  0  0
    2.7591   -8.1257   24.5092 He  0  0  0  0  0  0  0  0  0  0  0  0
    6.1168   -8.2541   24.0123 He  0  0  0  0  0  0  0  0  0  0  0  0
    4.8719   -7.0610   26.0908 He  0  0  0  0  0  0  0  0  0  0  0  0
    2.3098  -10.2342   20.1931 He  0  0  0  0  0  0  0  0  0  0  0  0
    3.6832   -7.7585   25.6143 He  0  0  0  0  0  0  0  0  0  0  0  0
  1 10  1  0
  1 20  1  0
  2  6  2  0
  2  7  3  0
  2  8  1  0
  2 12  4  0
  2 13  1  0
  2 14  1  0
  2 16  4  0
  2 17  4  0
  2 18  4  0
  2 20  3  0
  3 12  2  0
  3 13  4  0
  3 14  4  0
  3 15  1  0
  3 17  2  0
  3 19  2  0
  3 20  1  0
  4  7  3  0
  4  8  2  0
  4 10  3  0
  4 15  2  0
  4 16  4  0
  4 17  3  0
  4 20  2  0
  5  6  3  0
  5  9  3  0
  5 10  3  0
  5 11  3  0
  5 18  1  0
  6 11  1  0
  6 15  4  0
  6 16  4  0
  6 18  1  0
  6 19  2  0
  7 11  1  0
  7 15  4  0
  8  9  4  0
  8 11  4  0
  8 16  2  0
  8 17  4  0
  8 18  1  0
  8 21  1  0
  9 18  4  0
  9 21  1  0
 10 11  1  0
 10 17  4  0
 11 15  2  0
 11 16  4  0
 11 17  2  0
 11 21  2  0
 12 18  4  0
 12 20  4  0
 13 14  1  0
 13 19  4  0
 13 21  3  0
 14 18  1  0
 14 19  3  0
 15 18  3  0
 15 19  4  0
 15 21  4  0
 16 18  1  0
 16 19  4  0
 17 20  4  0
 17 21  3  0
 18 20  4  0
 18 21  4  0
 19 21  4  0
M  END
$$$$

 Created by Python create_sdf_string function

 28 16  0  0  0  0  0  0  0  0999 V2000
    0.7927   -9.2658   16.2408 N   0  0  0  0  0  0  0  0  0  0  0  0
    3.2919   -9.4252   20.8816 C   0  0  0  0  0  0  0  0  0  0  0  0
    3.6576   -8.3426   23.2057 C   0  0  0  0  0  0  0  0  0  0  0  0
    3.8811   -7.6933   25.1127 C   0  0  0  0  0  0  0  0  0  0  0  0
    2.8503   -7.8836   25.6297 C   0  0  0  0  0  0  0  0  0  0  0  0
    3.9149   -8.0457   23.7214 C   0  0  0  0  0  0  0  0  0  0  0  0
    3.2097   -9.5007   20.7635 C   0  0  0  0  0  0  0  0  0  0  0  0
    4.2758   -9.0831   20.2105 C   0  0  0  0  0  0  0  0  0  0  0  0
    4.7189   -7.6711   28.2732 C   0  0  0  0  0  0  0  0  0  0  0  0
    4.0299   -8.8325   17.7162 C   0  0  0  0  0  0  0  0  0  0  0  0
    3.8149   -7.3682   15.5947 C   0  0  0  0  0  0  0  0  0  0  0  0
    4.6128   -7.8324   16.6089 C   0  0  0  0  0  0  0  0  0  0  0  0
    1.3709   -8.2084   15.2395 C   0  0  0  0  0  0  0  0  0  0  0  0
    2.2698   -8.2895   25.8536 C   0  0  0  0  0  0  0  0  0  0  0  0
    2.3257   -9.2668   17.3104 C   0  0  0  0  0  0  0  0  0  0  0  0
    3.9388  -10.1519   29.5285 C   0  0  0  0  0  0  0  0  0  0  0  0
    4.9895   -7.7143   24.6923 C   0  0  0  0  0  0  0  0  0  0  0  0
    4.0292  -11.0457   30.4429 O   0  0  0  0  0  0  0  0  0  0  0  0
    4.7772   -7.1645   26.3831 C   0  0  0  0  0  0  0  0  0  0  0  0
    3.8848   -8.4207   27.7521 C   0  0  0  0  0  0  0  0  0  0  0  0
    5.0999   -8.2242   29.6128 C   0  0  0  0  0  0  0  0  0  0  0  0
    2.2465  -10.2315   19.0020 C   0  0  0  0  0  0  0  0  0  0  0  0
    2.7883   -7.6119   15.1740 C   0  0  0  0  0  0  0  0  0  0  0  0
    2.7512  -10.0873   19.4540 C   0  0  0  0  0  0  0  0  0  0  0  0
    4.8202   -9.3317   30.1629 N   0  0  0  0  0  0  0  0  0  0  0  0
    3.7762   -7.5922   26.1175 C   0  0  0  0  0  0  0  0  0  0  0  0
    2.2221   -8.8820   16.6621 C   0  0  0  0  0  0  0  0  0  0  0  0
    3.5006   -9.8033   28.5311 N   0  0  0  0  0  0  0  0  0  0  0  0
  1 13  4  0
  1 27  1  0
  5 14  1  0
  9 20  4  0
  9 21  4  0
 10 12  4  0
 11 12  4  0
 11 23  4  0
 13 23  4  0
 15 27  4  0
 16 18  1  0
 16 25  4  0
 16 28  4  0
 20 28  4  0
 21 25  4  0
 22 24  4  0
M  END
$$$$

 Created by Python create_sdf_string function

 28 37  0  0  0  0  0  0  0  0999 V2000
    1.0017   -9.4368   15.9134 N   0  0  0  0  0  0  0  0  0  0  0  0
    1.9951   -7.2507   23.7963 I   0  0  0  0  0  0  0  0  0  0  0  0
    2.3562   -6.6103   24.6974 Cl  0  0  0  0  0  0  0  0  0  0  0  0
    4.2317   -8.2900   24.4449 N   0  0  0  0  0  0  0  0  0  0  0  0
    3.4089   -9.8385   20.8805 Cl  0  0  0  0  0  0  0  0  0  0  0  0
    4.6714   -7.8424   28.2542 C   0  0  0  0  0  0  0  0  0  0  0  0
    4.0687   -8.3011   17.3705 C   0  0  0  0  0  0  0  0  0  0  0  0
    5.1757   -8.2738   16.5950 C   0  0  0  0  0  0  0  0  0  0  0  0
    1.6256   -8.1332   15.2186 C   0  0  0  0  0  0  0  0  0  0  0  0
    2.6897   -9.6135   17.9086 C   0  0  0  0  0  0  0  0  0  0  0  0
    4.1271   -9.7676   29.9485 C   0  0  0  0  0  0  0  0  0  0  0  0
    4.1047  -11.0602   30.8028 F   0  0  0  0  0  0  0  0  0  0  0  0
    4.9630   -8.7562   27.3917 C   0  0  0  0  0  0  0  0  0  0  0  0
    5.3543   -7.6105   29.0349 C   0  0  0  0  0  0  0  0  0  0  0  0
    1.4891   -9.2522   16.8870 C   0  0  0  0  0  0  0  0  0  0  0  0
    2.9569   -9.5283   28.4930 N   0  0  0  0  0  0  0  0  0  0  0  0
    4.2571   -7.9166   21.5428 He  0  0  0  0  0  0  0  0  0  0  0  0
    2.7451   -7.0602   25.4536 He  0  0  0  0  0  0  0  0  0  0  0  0
    4.1623   -9.1120   21.8436 He  0  0  0  0  0  0  0  0  0  0  0  0
    3.7135   -6.6790   15.8878 He  0  0  0  0  0  0  0  0  0  0  0  0
    3.1723   -9.8807   26.2873 He  0  0  0  0  0  0  0  0  0  0  0  0
    5.1861   -7.5292   25.8180 He  0  0  0  0  0  0  0  0  0  0  0  0
    4.0085   -6.2483   27.0999 He  0  0  0  0  0  0  0  0  0  0  0  0
    1.7198  -10.8135   17.2892 He  0  0  0  0  0  0  0  0  0  0  0  0
    3.4042   -7.2472   14.9785 He  0  0  0  0  0  0  0  0  0  0  0  0
    2.4757  -11.6469   18.9199 He  0  0  0  0  0  0  0  0  0  0  0  0
    5.4349   -9.8000   29.9168 He  0  0  0  0  0  0  0  0  0  0  0  0
    3.7041   -8.3588   26.7068 He  0  0  0  0  0  0  0  0  0  0  0  0
  1  2  1  0
  1  4  4  0
  1 11  3  0
  1 15  1  0
  2  4  1  0
  2  6  4  0
  2 10  1  0
  2 11  2  0
  2 14  2  0
  2 15  3  0
  3  4  3  0
  3  6  1  0
  3  8  1  0
  3 13  1  0
  3 15  1  0
  3 16  1  0
  4  5  1  0
  4  6  4  0
  4  9  3  0
  4 11  2  0
  4 12  1  0
  4 16  4  0
  5  6  3  0
  5  8  4  0
  5 11  1  0
  5 12  2  0
  5 14  2  0
  6 13  4  0
  7  8  4  0
  7 15  3  0
  9 12  4  0
 10 15  4  0
 11 12  1  0
 11 13  1  0
 11 15  2  0
 13 14  3  0
 13 16  1  0
M  END
$$$$

 Created by Python create_sdf_string function

 28 19  0  0  0  0  0  0  0  0999 V2000
    1.1070   -9.2448   16.1203 N   0  0  0  0  0  0  0  0  0  0  0  0
    3.7213   -9.0788   21.2851 C   0  0  0  0  0  0  0  0  0  0  0  0
    2.9435   -7.1735   25.0006 C   0  0  0  0  0  0  0  0  0  0  0  0
    2.8154   -6.8720   26.0933 C   0  0  0  0  0  0  0  0  0  0  0  0
    2.6158   -6.4086   25.9843 C   0  0  0  0  0  0  0  0  0  0  0  0
    4.3572   -7.6754   25.0407 C   0  0  0  0  0  0  0  0  0  0  0  0
    3.6833   -9.1842   21.3730 C   0  0  0  0  0  0  0  0  0  0  0  0
    3.3606   -9.8990   19.6554 C   0  0  0  0  0  0  0  0  0  0  0  0
    4.9240   -7.9299   28.2280 C   0  0  0  0  0  0  0  0  0  0  0  0
    3.7956   -8.6534   17.4321 C   0  0  0  0  0  0  0  0  0  0  0  0
    4.1307   -7.2684   15.6620 C   0  0  0  0  0  0  0  0  0  0  0  0
    4.5713   -7.8217   16.9486 C   0  0  0  0  0  0  0  0  0  0  0  0
    1.8002   -8.0557   15.1665 C   0  0  0  0  0  0  0  0  0  0  0  0
    2.7456   -8.9651   26.5917 C   0  0  0  0  0  0  0  0  0  0  0  0
    2.6045   -9.7537   17.8034 C   0  0  0  0  0  0  0  0  0  0  0  0
    4.2434   -9.9974   29.7907 C   0  0  0  0  0  0  0  0  0  0  0  0
    4.9661   -7.4037   26.2275 C   0  0  0  0  0  0  0  0  0  0  0  0
    3.8796  -11.0166   30.6481 N   0  0  0  0  0  0  0  0  0  0  0  0
    4.3049   -6.4190   27.1941 C   0  0  0  0  0  0  0  0  0  0  0  0
    4.2405   -8.6890   27.7965 C   0  0  0  0  0  0  0  0  0  0  0  0
    5.6097   -8.1021   29.3197 C   0  0  0  0  0  0  0  0  0  0  0  0
    1.6920  -10.4612   17.8399 C   0  0  0  0  0  0  0  0  0  0  0  0
    3.0576   -7.2587   15.1044 C   0  0  0  0  0  0  0  0  0  0  0  0
    2.4181  -10.7703   18.8008 C   0  0  0  0  0  0  0  0  0  0  0  0
    5.3055   -9.2713   30.0863 C   0  0  0  0  0  0  0  0  0  0  0  0
    3.4455   -8.3000   26.7388 C   0  0  0  0  0  0  0  0  0  0  0  0
    2.2415   -9.2859   16.9759 C   0  0  0  0  0  0  0  0  0  0  0  0
    3.4602   -9.9037   28.7625 N   0  0  0  0  0  0  0  0  0  0  0  0
  1 13  4  0
  1 27  1  0
  2  7  1  0
  4  5  1  0
  9 20  4  0
  9 21  4  0
 10 12  4  0
 10 27  4  0
 11 12  4  0
 11 23  4  0
 13 23  4  0
 14 26  1  0
 15 27  4  0
 16 18  1  0
 16 25  4  0
 16 28  4  0
 20 28  4  0
 21 25  4  0
 22 24  4  0
M  END
$$$$

 Created by Python create_sdf_string function

 28 51  0  0  0  0  0  0  0  0999 V2000
    3.0153   -6.9565   25.7927 N   0  0  0  0  0  0  0  0  0  0  0  0
    2.2385   -6.1902   26.1208 O   0  0  0  0  0  0  0  0  0  0  0  0
    3.6056   -9.2834   22.7744 S   0  0  0  0  0  0  0  0  0  0  0  0
    1.5750  -11.3785   19.4094 O   0  0  0  0  0  0  0  0  0  0  0  0
    3.7358   -9.1007   18.0218 C   0  0  0  0  0  0  0  0  0  0  0  0
    1.6042   -8.6581   14.7919 C   0  0  0  0  0  0  0  0  0  0  0  0
    1.8223   -8.6553   26.9762 S   0  0  0  0  0  0  0  0  0  0  0  0
    2.9118   -9.2572   18.4109 C   0  0  0  0  0  0  0  0  0  0  0  0
    4.2881  -10.4477   30.1111 C   0  0  0  0  0  0  0  0  0  0  0  0
    4.1783  -11.1916   30.3049 N   0  0  0  0  0  0  0  0  0  0  0  0
    4.4373   -8.2349   27.3961 N   0  0  0  0  0  0  0  0  0  0  0  0
    5.9256   -8.5755   28.6190 C   0  0  0  0  0  0  0  0  0  0  0  0
    1.5742  -10.4894   19.2730 S   0  0  0  0  0  0  0  0  0  0  0  0
    0.1530  -11.8683   19.2773 Br  0  0  0  0  0  0  0  0  0  0  0  0
    6.2065   -9.8286   30.1700 C   0  0  0  0  0  0  0  0  0  0  0  0
    3.5530   -7.6249   27.4387 O   0  0  0  0  0  0  0  0  0  0  0  0
    2.5358   -9.0396   17.1669 S   0  0  0  0  0  0  0  0  0  0  0  0
    3.5362  -10.2822   28.8466 N   0  0  0  0  0  0  0  0  0  0  0  0
    1.4435   -9.4180   16.9445 He  0  0  0  0  0  0  0  0  0  0  0  0
    3.7363   -8.0916   22.5967 He  0  0  0  0  0  0  0  0  0  0  0  0
    3.7293   -5.4626   24.8337 He  0  0  0  0  0  0  0  0  0  0  0  0
    3.9084   -9.7053   20.3298 He  0  0  0  0  0  0  0  0  0  0  0  0
    4.9080   -8.5183   29.1133 He  0  0  0  0  0  0  0  0  0  0  0  0
    4.1927   -7.2668   15.9168 He  0  0  0  0  0  0  0  0  0  0  0  0
    3.8463   -8.0144   16.8483 He  0  0  0  0  0  0  0  0  0  0  0  0
    4.8467   -8.2108   25.1375 He  0  0  0  0  0  0  0  0  0  0  0  0
    5.0806   -6.0902   28.1047 He  0  0  0  0  0  0  0  0  0  0  0  0
    3.6289   -6.3745   15.3333 He  0  0  0  0  0  0  0  0  0  0  0  0
  1  2  2  0
  1 11  1  0
  1 12  3  0
  1 15  2  0
  2  6  3  0
  2  9  3  0
  2 10  4  0
  2 16  3  0
  3  9  1  0
  3 10  4  0
  3 11  4  0
  3 15  1  0
  4  7  3  0
  4  9  1  0
  4 11  3  0
  4 15  4  0
  4 16  2  0
  4 18  3  0
  5 13  3  0
  5 14  3  0
  5 17  4  0
  6  7  3  0
  6 12  3  0
  6 14  4  0
  7  9  4  0
  7 14  2  0
  7 15  2  0
  7 18  3  0
  8 14  3  0
  8 17  4  0
  9 10  1  0
  9 13  1  0
  9 15  3  0
  9 16  2  0
 10 14  2  0
 10 15  2  0
 10 17  1  0
 11 13  4  0
 11 14  2  0
 11 15  3  0
 11 16  3  0
 12 14  4  0
 12 15  4  0
 13 14  1  0
 13 16  3  0
 13 18  2  0
 14 15  1  0
 14 17  1  0
 14 18  1  0
 15 16  1  0
 17 18  3  0
M  END
$$$$

 Created by Python create_sdf_string function

 28 19  0  0  0  0  0  0  0  0999 V2000
    1.1728   -9.6440   16.9141 C   0  0  0  0  0  0  0  0  0  0  0  0
    4.1328   -7.5137   24.6796 C   0  0  0  0  0  0  0  0  0  0  0  0
    3.3583   -6.2468   26.2657 C   0  0  0  0  0  0  0  0  0  0  0  0
    3.1021   -7.0524   26.4181 C   0  0  0  0  0  0  0  0  0  0  0  0
    2.3027   -6.4786   26.6648 C   0  0  0  0  0  0  0  0  0  0  0  0
    3.9677   -7.7934   24.1680 O   0  0  0  0  0  0  0  0  0  0  0  0
    3.5119  -10.3715   18.7441 C   0  0  0  0  0  0  0  0  0  0  0  0
    1.7097  -11.0333   18.8922 C   0  0  0  0  0  0  0  0  0  0  0  0
    5.1912   -8.4942   28.6152 C   0  0  0  0  0  0  0  0  0  0  0  0
    3.6010   -8.9331   17.1116 C   0  0  0  0  0  0  0  0  0  0  0  0
    4.1305   -7.3270   15.8377 C   0  0  0  0  0  0  0  0  0  0  0  0
    4.3057   -8.2340   16.8220 C   0  0  0  0  0  0  0  0  0  0  0  0
    1.9412   -8.0829   15.5487 C   0  0  0  0  0  0  0  0  0  0  0  0
    2.4061   -8.6253   27.1864 C   0  0  0  0  0  0  0  0  0  0  0  0
    2.9893  -10.0449   17.8326 C   0  0  0  0  0  0  0  0  0  0  0  0
    4.4998  -10.5001   29.8687 C   0  0  0  0  0  0  0  0  0  0  0  0
    4.9239   -7.6441   25.8925 C   0  0  0  0  0  0  0  0  0  0  0  0
    4.2830  -11.4133   30.6211 N   0  0  0  0  0  0  0  0  0  0  0  0
    5.1266   -6.7557   27.6037 C   0  0  0  0  0  0  0  0  0  0  0  0
    4.2036   -8.7178   28.1013 C   0  0  0  0  0  0  0  0  0  0  0  0
    5.9681   -8.7273   29.2141 C   0  0  0  0  0  0  0  0  0  0  0  0
    1.1045  -10.8355   18.5510 C   0  0  0  0  0  0  0  0  0  0  0  0
    3.1697   -7.2128   15.2905 C   0  0  0  0  0  0  0  0  0  0  0  0
    0.3707  -11.1576   18.6982 C   0  0  0  0  0  0  0  0  0  0  0  0
    5.7391   -9.8533   29.9884 C   0  0  0  0  0  0  0  0  0  0  0  0
    3.7553   -7.7102   27.4582 C   0  0  0  0  0  0  0  0  0  0  0  0
    2.2678   -9.4230   17.0416 C   0  0  0  0  0  0  0  0  0  0  0  0
    3.6893  -10.1750   28.9604 N   0  0  0  0  0  0  0  0  0  0  0  0
  1 27  4  0
  2  6  1  0
  2 17  1  0
  7 15  4  0
  8 22  4  0
  9 20  4  0
  9 21  4  0
 10 12  4  0
 10 27  4  0
 11 12  4  0
 11 23  4  0
 13 23  4  0
 15 27  4  0
 16 18  1  0
 16 25  4  0
 16 28  4  0
 20 28  4  0
 21 25  4  0
 22 24  1  0
M  END
$$$$

 Created by Python create_sdf_string function

 28 60  0  0  0  0  0  0  0  0999 V2000
    1.8472  -10.1117   16.7161 C   0  0  0  0  0  0  0  0  0  0  0  0
    3.9837   -5.2591   27.7309 F   0  0  0  0  0  0  0  0  0  0  0  0
    0.4302  -11.2942   17.1007 O   0  0  0  0  0  0  0  0  0  0  0  0
    5.0363   -8.6606   28.7118 C   0  0  0  0  0  0  0  0  0  0  0  0
    3.1966   -8.9251   16.9347 C   0  0  0  0  0  0  0  0  0  0  0  0
    3.6189   -7.0861   16.3638 C   0  0  0  0  0  0  0  0  0  0  0  0
    5.0843   -7.8799   17.0949 I   0  0  0  0  0  0  0  0  0  0  0  0
    2.1187   -8.0743   15.3392 C   0  0  0  0  0  0  0  0  0  0  0  0
    3.1257   -8.4215   27.7504 Cl  0  0  0  0  0  0  0  0  0  0  0  0
    2.0816   -9.9126   17.8471 N   0  0  0  0  0  0  0  0  0  0  0  0
    4.7952  -10.5183   29.8803 C   0  0  0  0  0  0  0  0  0  0  0  0
    4.4616  -11.5304   30.6038 N   0  0  0  0  0  0  0  0  0  0  0  0
    4.4096   -8.8862   27.9542 C   0  0  0  0  0  0  0  0  0  0  0  0
    5.6272   -8.9662   28.8087 C   0  0  0  0  0  0  0  0  0  0  0  0
    2.7094   -7.3718   15.4466 C   0  0  0  0  0  0  0  0  0  0  0  0
    5.6230  -10.0107   29.1512 C   0  0  0  0  0  0  0  0  0  0  0  0
    2.9177   -6.8899   29.0584 N   0  0  0  0  0  0  0  0  0  0  0  0
    1.7804   -8.8344   17.1743 C   0  0  0  0  0  0  0  0  0  0  0  0
    3.2337  -10.2828   28.6350 N   0  0  0  0  0  0  0  0  0  0  0  0
    3.0902   -7.5323   23.8203 He  0  0  0  0  0  0  0  0  0  0  0  0
    3.3273   -7.2922   26.5259 He  0  0  0  0  0  0  0  0  0  0  0  0
    2.8799   -8.1580   25.8814 He  0  0  0  0  0  0  0  0  0  0  0  0
    1.6576   -8.8352   24.8193 He  0  0  0  0  0  0  0  0  0  0  0  0
    3.4893  -10.9574   19.1817 He  0  0  0  0  0  0  0  0  0  0  0  0
    5.7387   -6.1560   24.5998 He  0  0  0  0  0  0  0  0  0  0  0  0
    5.0879   -8.8507   28.3391 He  0  0  0  0  0  0  0  0  0  0  0  0
    1.2966  -12.4325   17.5391 He  0  0  0  0  0  0  0  0  0  0  0  0
    1.1822  -10.1101   18.6326 He  0  0  0  0  0  0  0  0  0  0  0  0
  1  2  3  0
  1  3  4  0
  1 10  2  0
  1 11  3  0
  1 15  4  0
  1 16  2  0
  1 17  4  0
  1 18  4  0
  2  3  1  0
  2  5  2  0
  2  7  1  0
  2 13  3  0
  2 15  3  0
  2 17  2  0
  2 18  3  0
  2 19  3  0
  3  5  1  0
  3 12  4  0
  3 13  1  0
  3 18  2  0
  3 19  2  0
  4 13  4  0
  4 17  1  0
  4 18  4  0
  4 19  2  0
  5  7  4  0
  5 18  4  0
  6  7  4  0
  6 10  4  0
  6 12  1  0
  6 15  4  0
  6 17  2  0
  6 18  2  0
  7 16  1  0
  7 17  1  0
  8 13  2  0
  8 15  4  0
  8 17  2  0
  9 11  3  0
  9 14  2  0
  9 17  1  0
 10 12  2  0
 10 13  4  0
 10 15  2  0
 11 12  1  0
 11 14  1  0
 11 16  4  0
 11 17  3  0
 11 18  2  0
 11 19  4  0
 12 17  2  0
 13 19  4  0
 14 16  4  0
 14 17  3  0
 14 18  1  0
 14 19  2  0
 15 19  2  0
 16 17  3  0
 16 19  4  0
 17 19  4  0
M  END
$$$$

 Created by Python create_sdf_string function

 28 19  0  0  0  0  0  0  0  0999 V2000
    1.2332  -10.0604   16.7350 C   0  0  0  0  0  0  0  0  0  0  0  0
    3.8146   -7.3601   25.5650 C   0  0  0  0  0  0  0  0  0  0  0  0
    4.0193   -5.7462   27.4994 C   0  0  0  0  0  0  0  0  0  0  0  0
    3.2579   -6.8021   26.8347 C   0  0  0  0  0  0  0  0  0  0  0  0
    2.8900   -7.6490   26.5266 C   0  0  0  0  0  0  0  0  0  0  0  0
    2.3651   -8.5036   26.4059 O   0  0  0  0  0  0  0  0  0  0  0  0
    3.1594  -10.3454   18.3360 C   0  0  0  0  0  0  0  0  0  0  0  0
    0.3862  -11.0972   17.2102 C   0  0  0  0  0  0  0  0  0  0  0  0
    5.1651   -8.3573   28.3410 C   0  0  0  0  0  0  0  0  0  0  0  0
    3.3431   -9.0184   17.3055 C   0  0  0  0  0  0  0  0  0  0  0  0
    4.0760   -7.1584   16.1052 C   0  0  0  0  0  0  0  0  0  0  0  0
    4.3755   -8.0097   17.1459 C   0  0  0  0  0  0  0  0  0  0  0  0
    1.9919   -8.1072   15.5878 C   0  0  0  0  0  0  0  0  0  0  0  0
    2.8370   -8.0565   27.6903 C   0  0  0  0  0  0  0  0  0  0  0  0
    2.0902  -10.8610   18.2803 C   0  0  0  0  0  0  0  0  0  0  0  0
    4.6429  -10.5524   29.7066 C   0  0  0  0  0  0  0  0  0  0  0  0
    5.1139   -6.8554   26.2628 C   0  0  0  0  0  0  0  0  0  0  0  0
    4.4285  -11.5738   30.5181 N   0  0  0  0  0  0  0  0  0  0  0  0
    5.1519   -7.9050   27.8240 C   0  0  0  0  0  0  0  0  0  0  0  0
    4.0633   -8.9181   28.2401 C   0  0  0  0  0  0  0  0  0  0  0  0
    6.1142   -8.8875   29.0665 C   0  0  0  0  0  0  0  0  0  0  0  0
    1.0636  -11.7718   18.0455 C   0  0  0  0  0  0  0  0  0  0  0  0
    2.9633   -7.1629   15.4230 C   0  0  0  0  0  0  0  0  0  0  0  0
    1.0969  -10.8959   18.2740 C   0  0  0  0  0  0  0  0  0  0  0  0
    5.8035   -9.9571   29.7058 C   0  0  0  0  0  0  0  0  0  0  0  0
    3.1475   -6.8040   28.2738 C   0  0  0  0  0  0  0  0  0  0  0  0
    2.2172   -9.1151   16.6203 C   0  0  0  0  0  0  0  0  0  0  0  0
    3.7652  -10.0949   28.8960 N   0  0  0  0  0  0  0  0  0  0  0  0
  1  8  4  0
  1 27  4  0
  2 17  1  0
  5  6  1  0
  7 10  4  0
  7 15  4  0
  9 20  4  0
  9 21  4  0
 10 12  4  0
 10 27  4  0
 11 12  4  0
 11 23  4  0
 13 23  4  0
 13 27  4  0
 16 18  1  0
 16 25  4  0
 16 28  4  0
 20 28  4  0
 21 25  4  0
M  END
$$$$

 Created by Python create_sdf_string function

 28 47  0  0  0  0  0  0  0  0999 V2000
    0.5835  -10.2984   16.3906 C   0  0  0  0  0  0  0  0  0  0  0  0
    4.2325   -5.9659   26.7037 F   0  0  0  0  0  0  0  0  0  0  0  0
    2.9107   -8.3474   27.4881 C   0  0  0  0  0  0  0  0  0  0  0  0
    1.9014  -12.4710   18.3293 Cl  0  0  0  0  0  0  0  0  0  0  0  0
    5.3984   -8.5697   27.9365 C   0  0  0  0  0  0  0  0  0  0  0  0
    3.8407   -9.3370   17.3960 C   0  0  0  0  0  0  0  0  0  0  0  0
    4.4681   -7.5384   15.9356 F   0  0  0  0  0  0  0  0  0  0  0  0
    4.9823   -7.8283   16.9777 C   0  0  0  0  0  0  0  0  0  0  0  0
    2.1254   -7.5948   15.7066 C   0  0  0  0  0  0  0  0  0  0  0  0
    2.5833  -11.4050   18.3368 C   0  0  0  0  0  0  0  0  0  0  0  0
    4.8774  -10.9257   30.0569 C   0  0  0  0  0  0  0  0  0  0  0  0
    3.2154   -6.9836   26.5412 F   0  0  0  0  0  0  0  0  0  0  0  0
    5.2230   -8.2345   28.1534 C   0  0  0  0  0  0  0  0  0  0  0  0
    4.3346   -8.5003   28.1607 C   0  0  0  0  0  0  0  0  0  0  0  0
    6.4901   -8.8162   29.5559 C   0  0  0  0  0  0  0  0  0  0  0  0
    2.6656   -8.3750   28.2811 Se  0  0  0  0  0  0  0  0  0  0  0  0
    1.9291   -9.3535   16.8562 C   0  0  0  0  0  0  0  0  0  0  0  0
    3.6302  -10.1671   28.8922 N   0  0  0  0  0  0  0  0  0  0  0  0
    4.6701   -5.9685   25.8498 He  0  0  0  0  0  0  0  0  0  0  0  0
    5.1632   -6.0765   27.2572 He  0  0  0  0  0  0  0  0  0  0  0  0
    1.8595   -9.7619   26.2597 He  0  0  0  0  0  0  0  0  0  0  0  0
    0.2051  -11.8250   17.5163 He  0  0  0  0  0  0  0  0  0  0  0  0
    3.2946   -8.8561   28.5675 He  0  0  0  0  0  0  0  0  0  0  0  0
    4.2623  -12.2354   31.1768 He  0  0  0  0  0  0  0  0  0  0  0  0
   -0.0833  -11.7553   18.8962 He  0  0  0  0  0  0  0  0  0  0  0  0
    2.4432   -7.3751   15.9793 He  0  0  0  0  0  0  0  0  0  0  0  0
    0.9228  -11.3723   18.3676 He  0  0  0  0  0  0  0  0  0  0  0  0
    5.6584   -9.9672   29.4158 He  0  0  0  0  0  0  0  0  0  0  0  0
  1  3  3  0
  1 14  2  0
  1 17  4  0
  2  4  3  0
  2  6  1  0
  2 10  1  0
  2 12  3  0
  2 14  4  0
  2 17  3  0
  2 18  1  0
  3  4  4  0
  3  7  2  0
  3  9  3  0
  3 10  1  0
  3 11  1  0
  3 12  3  0
  3 16  2  0
  3 17  2  0
  4  5  3  0
  4  6  4  0
  4  8  3  0
  4 15  4  0
  4 16  2  0
  4 18  2  0
  5 14  2  0
  6  7  4  0
  6  8  4  0
  6 12  1  0
  6 15  4  0
  6 17  4  0
  7  8  4  0
  7  9  3  0
  7 14  2  0
  8 11  3  0
  8 12  3  0
  8 13  1  0
  8 16  4  0
  9 12  3  0
  9 17  4  0
  9 18  3  0
 10 12  1  0
 11 13  4  0
 11 18  4  0
 12 16  1  0
 12 18  3  0
 16 17  4  0
 16 18  1  0
M  END
$$$$

 Created by Python create_sdf_string function

 28 20  0  0  0  0  0  0  0  0999 V2000
    0.8558  -10.1015   16.8887 C   0  0  0  0  0  0  0  0  0  0  0  0
    4.5059   -6.4212   26.6743 C   0  0  0  0  0  0  0  0  0  0  0  0
    5.3599   -6.4285   27.1782 C   0  0  0  0  0  0  0  0  0  0  0  0
    3.9989   -6.5253   26.8842 C   0  0  0  0  0  0  0  0  0  0  0  0
    2.6683   -8.3866   27.5542 C   0  0  0  0  0  0  0  0  0  0  0  0
    1.9629   -8.9224   26.8424 C   0  0  0  0  0  0  0  0  0  0  0  0
    1.6396  -11.7040   18.3463 C   0  0  0  0  0  0  0  0  0  0  0  0
    0.0377  -11.2162   17.6661 C   0  0  0  0  0  0  0  0  0  0  0  0
    5.5497   -8.2750   28.2416 C   0  0  0  0  0  0  0  0  0  0  0  0
    3.5542   -9.3580   17.3182 C   0  0  0  0  0  0  0  0  0  0  0  0
    4.1664   -7.4071   16.2836 C   0  0  0  0  0  0  0  0  0  0  0  0
    4.4986   -8.4100   17.0390 C   0  0  0  0  0  0  0  0  0  0  0  0
    1.9391   -8.1512   16.0914 C   0  0  0  0  0  0  0  0  0  0  0  0
    2.9966   -9.2913   28.3338 C   0  0  0  0  0  0  0  0  0  0  0  0
    2.6017  -11.0890   18.2701 C   0  0  0  0  0  0  0  0  0  0  0  0
    4.6879  -10.5654   29.9698 C   0  0  0  0  0  0  0  0  0  0  0  0
    3.1087   -7.0900   26.7354 C   0  0  0  0  0  0  0  0  0  0  0  0
    4.5289  -11.5049   30.6392 O   0  0  0  0  0  0  0  0  0  0  0  0
    5.8275   -8.0112   28.1366 C   0  0  0  0  0  0  0  0  0  0  0  0
    4.3436   -8.7040   28.2275 C   0  0  0  0  0  0  0  0  0  0  0  0
    6.5580   -9.1241   29.3869 C   0  0  0  0  0  0  0  0  0  0  0  0
   -0.1097  -11.5567   18.5053 C   0  0  0  0  0  0  0  0  0  0  0  0
    2.9029   -7.2454   15.8093 C   0  0  0  0  0  0  0  0  0  0  0  0
    0.8563  -11.0863   18.1339 C   0  0  0  0  0  0  0  0  0  0  0  0
    5.8657   -9.9823   29.9099 C   0  0  0  0  0  0  0  0  0  0  0  0
    2.5249   -8.4314   27.9141 C   0  0  0  0  0  0  0  0  0  0  0  0
    2.2304   -9.2961   16.9003 C   0  0  0  0  0  0  0  0  0  0  0  0
    3.6187  -10.1945   29.1682 N   0  0  0  0  0  0  0  0  0  0  0  0
  1  8  4  0
  1 27  4  0
  2  3  1  0
  2  4  1  0
  4 17  1  0
  7 15  4  0
  9 19  4  0
  9 20  4  0
  9 21  4  0
 10 12  4  0
 10 27  4  0
 11 12  4  0
 11 23  4  0
 13 23  4  0
 13 27  4  0
 14 28  4  0
 16 18  2  0
 16 25  4  0
 16 28  4  0
 21 25  4  0
M  END
$$$$

 Created by Python create_sdf_string function

 28 60  0  0  0  0  0  0  0  0999 V2000
    8.4530   -6.5749   27.4316 N   0  0  0  0  0  0  0  0  0  0  0  0
    1.2841   -9.6461   26.8127 F   0  0  0  0  0  0  0  0  0  0  0  0
    2.4846   -8.8079   28.2481 O   0  0  0  0  0  0  0  0  0  0  0  0
    0.3340  -12.8020   17.0573 Se  0  0  0  0  0  0  0  0  0  0  0  0
    5.4466   -8.6758   28.3209 C   0  0  0  0  0  0  0  0  0  0  0  0
    3.5892   -9.1023   17.4211 C   0  0  0  0  0  0  0  0  0  0  0  0
    4.1560   -7.4889   15.9311 C   0  0  0  0  0  0  0  0  0  0  0  0
    1.1631   -8.4198   16.1297 C   0  0  0  0  0  0  0  0  0  0  0  0
    4.3064  -10.3117   27.7068 O   0  0  0  0  0  0  0  0  0  0  0  0
    2.5322  -11.6170   18.1246 C   0  0  0  0  0  0  0  0  0  0  0  0
    4.4742  -10.6490   29.4556 C   0  0  0  0  0  0  0  0  0  0  0  0
    5.3985   -6.5875   26.5190 C   0  0  0  0  0  0  0  0  0  0  0  0
    3.5448   -9.2127   28.5745 C   0  0  0  0  0  0  0  0  0  0  0  0
    6.6414   -8.9954   29.5324 F   0  0  0  0  0  0  0  0  0  0  0  0
   -1.3576  -11.1405   17.2350 Br  0  0  0  0  0  0  0  0  0  0  0  0
    2.4837   -6.7484   16.6615 C   0  0  0  0  0  0  0  0  0  0  0  0
   -0.0852  -11.2813   16.5338 Cl  0  0  0  0  0  0  0  0  0  0  0  0
    6.6041   -9.9899   30.6960 C   0  0  0  0  0  0  0  0  0  0  0  0
    3.8389   -9.6324   29.1833 N   0  0  0  0  0  0  0  0  0  0  0  0
    0.2313   -9.7259   16.6960 He  0  0  0  0  0  0  0  0  0  0  0  0
    7.0289   -7.3165   26.2907 He  0  0  0  0  0  0  0  0  0  0  0  0
    3.2487   -6.9487   27.5304 He  0  0  0  0  0  0  0  0  0  0  0  0
    0.8171  -10.3352   19.1950 He  0  0  0  0  0  0  0  0  0  0  0  0
    5.1788   -8.3243   16.8899 He  0  0  0  0  0  0  0  0  0  0  0  0
    4.1873  -10.9847   30.3129 He  0  0  0  0  0  0  0  0  0  0  0  0
    3.6560   -8.1878   27.9050 He  0  0  0  0  0  0  0  0  0  0  0  0
    3.0827   -8.5595   28.8481 He  0  0  0  0  0  0  0  0  0  0  0  0
    1.6590   -8.7480   17.5093 He  0  0  0  0  0  0  0  0  0  0  0  0
  1  2  1  0
  1  3  4  0
  1  4  3  0
  1  6  2  0
  1  9  4  0
  1 12  1  0
  1 13  3  0
  1 14  3  0
  1 16  2  0
  1 19  3  0
  2  4  4  0
  2  6  2  0
  2  7  1  0
  2  9  3  0
  2 11  3  0
  2 12  2  0
  2 13  4  0
  2 15  3  0
  2 16  3  0
  2 19  4  0
  3  5  3  0
  3  6  1  0
  3  9  1  0
  3 14  1  0
  3 15  2  0
  3 18  1  0
  4  8  4  0
  4  9  1  0
  4 14  4  0
  4 15  2  0
  4 16  2  0
  4 17  4  0
  5 10  2  0
  5 12  1  0
  5 13  4  0
  5 17  4  0
  6  7  2  0
  6 18  1  0
  7 13  2  0
  7 15  1  0
  7 16  4  0
  7 17  4  0
  8 12  1  0
  9 16  1  0
  9 17  1  0
 11 15  3  0
 11 16  3  0
 11 17  1  0
 11 18  4  0
 11 19  4  0
 12 13  2  0
 12 17  4  0
 12 19  3  0
 13 15  4  0
 13 17  4  0
 13 18  1  0
 14 17  3  0
 14 18  4  0
 14 19  2  0
 17 18  3  0
M  END
$$$$

 Created by Python create_sdf_string function

 28 19  0  0  0  0  0  0  0  0999 V2000
    0.2861   -9.9904   17.0629 C   0  0  0  0  0  0  0  0  0  0  0  0
    6.5257   -7.2343   27.2421 C   0  0  0  0  0  0  0  0  0  0  0  0
    7.3635   -7.3875   27.6346 C   0  0  0  0  0  0  0  0  0  0  0  0
    3.4608   -7.1990   27.1645 C   0  0  0  0  0  0  0  0  0  0  0  0
    1.6882   -9.0220   27.2015 C   0  0  0  0  0  0  0  0  0  0  0  0
    2.2177   -8.4167   27.9859 C   0  0  0  0  0  0  0  0  0  0  0  0
    0.1061  -12.0866   17.7839 C   0  0  0  0  0  0  0  0  0  0  0  0
    0.9523  -10.9357   18.1939 C   0  0  0  0  0  0  0  0  0  0  0  0
    5.6218   -8.4997   28.3109 C   0  0  0  0  0  0  0  0  0  0  0  0
    3.3799   -9.4270   17.2919 C   0  0  0  0  0  0  0  0  0  0  0  0
    3.8262   -7.3562   16.2797 C   0  0  0  0  0  0  0  0  0  0  0  0
    4.2954   -8.3962   16.9369 C   0  0  0  0  0  0  0  0  0  0  0  0
    1.4969   -8.1689   16.4314 C   0  0  0  0  0  0  0  0  0  0  0  0
    4.0013   -9.5370   27.5001 C   0  0  0  0  0  0  0  0  0  0  0  0
    1.7217  -11.2876   18.1862 C   0  0  0  0  0  0  0  0  0  0  0  0
    4.8660  -10.3603   29.9845 C   0  0  0  0  0  0  0  0  0  0  0  0
    5.7151   -7.0286   26.8522 C   0  0  0  0  0  0  0  0  0  0  0  0
    4.4614  -11.2967   30.5245 O   0  0  0  0  0  0  0  0  0  0  0  0
    3.8008   -7.9047   27.4778 C   0  0  0  0  0  0  0  0  0  0  0  0
    4.0003   -8.9184   28.2946 C   0  0  0  0  0  0  0  0  0  0  0  0
    6.4645   -8.8599   29.2375 C   0  0  0  0  0  0  0  0  0  0  0  0
   -0.7842  -11.0051   17.4143 C   0  0  0  0  0  0  0  0  0  0  0  0
    2.5471   -7.1004   16.0103 C   0  0  0  0  0  0  0  0  0  0  0  0
    0.0294  -10.9874   17.1133 C   0  0  0  0  0  0  0  0  0  0  0  0
    6.1199   -9.8890   30.1262 C   0  0  0  0  0  0  0  0  0  0  0  0
    2.5820   -8.3672   28.6451 C   0  0  0  0  0  0  0  0  0  0  0  0
    1.9783   -9.2193   17.0274 C   0  0  0  0  0  0  0  0  0  0  0  0
    3.9983   -9.7695   29.1084 N   0  0  0  0  0  0  0  0  0  0  0  0
  1 24  4  0
  2  3  1  0
  2 17  4  0
  4 19  1  0
  8 15  4  0
  9 20  4  0
  9 21  4  0
 10 12  4  0
 10 27  4  0
 11 12  4  0
 11 23  4  0
 13 23  4  0
 13 27  4  0
 16 18  2  0
 16 25  4  0
 16 28  4  0
 19 20  1  0
 20 28  4  0
 21 25  4  0
M  END
$$$$

 Created by Python create_sdf_string function

 28 31  0  0  0  0  0  0  0  0999 V2000
    0.2525  -10.7818   16.5689 C   0  0  0  0  0  0  0  0  0  0  0  0
    3.4932   -8.1527   26.2738 N   0  0  0  0  0  0  0  0  0  0  0  0
    5.4563   -8.5746   27.7880 C   0  0  0  0  0  0  0  0  0  0  0  0
    4.1244   -9.4488   17.8027 F   0  0  0  0  0  0  0  0  0  0  0  0
    4.2305   -7.3707   16.3918 Cl  0  0  0  0  0  0  0  0  0  0  0  0
    4.8287   -7.8027   17.3700 C   0  0  0  0  0  0  0  0  0  0  0  0
    1.3224   -7.9542   16.7902 O   0  0  0  0  0  0  0  0  0  0  0  0
    1.9907  -11.2285   18.1079 C   0  0  0  0  0  0  0  0  0  0  0  0
    5.9502   -7.0133   25.3364 Cl  0  0  0  0  0  0  0  0  0  0  0  0
    4.2828  -11.6512   31.1819 P   0  0  0  0  0  0  0  0  0  0  0  0
    4.1389   -9.1740   28.8525 C   0  0  0  0  0  0  0  0  0  0  0  0
    2.8904   -6.8761   15.9127 C   0  0  0  0  0  0  0  0  0  0  0  0
    3.5960   -9.1880   28.9508 S   0  0  0  0  0  0  0  0  0  0  0  0
    1.8310   -9.0262   17.1382 F   0  0  0  0  0  0  0  0  0  0  0  0
    4.2710   -9.2306   29.1391 N   0  0  0  0  0  0  0  0  0  0  0  0
    6.0553   -5.7202   28.7784 He  0  0  0  0  0  0  0  0  0  0  0  0
    7.3419   -7.4774   27.6672 He  0  0  0  0  0  0  0  0  0  0  0  0
   -0.7666   -8.6044   26.4843 He  0  0  0  0  0  0  0  0  0  0  0  0
    2.5907   -8.2815   28.1626 He  0  0  0  0  0  0  0  0  0  0  0  0
    2.1107  -10.8284   17.4342 He  0  0  0  0  0  0  0  0  0  0  0  0
    1.8360   -9.6164   17.2686 He  0  0  0  0  0  0  0  0  0  0  0  0
    3.5481   -7.9644   28.0057 He  0  0  0  0  0  0  0  0  0  0  0  0
    4.6641   -9.8834   30.1476 He  0  0  0  0  0  0  0  0  0  0  0  0
    4.2363   -7.6550   25.4508 He  0  0  0  0  0  0  0  0  0  0  0  0
    5.9075   -9.1600   28.9072 He  0  0  0  0  0  0  0  0  0  0  0  0
   -0.2903  -10.3785   18.6539 He  0  0  0  0  0  0  0  0  0  0  0  0
    0.4833  -11.8923   17.1416 He  0  0  0  0  0  0  0  0  0  0  0  0
    6.3858  -10.1882   30.0605 He  0  0  0  0  0  0  0  0  0  0  0  0
  1  4  4  0
  1  5  1  0
  1  9  1  0
  1 11  1  0
  2  3  2  0
  2  4  4  0
  2  9  3  0
  3  8  2  0
  3 11  4  0
  3 13  3  0
  4  6  1  0
  4 13  3  0
  4 14  2  0
  5  6  4  0
  5 11  3  0
  5 12  4  0
  5 13  4  0
  5 14  4  0
  6  9  3  0
  6 11  4  0
  6 14  4  0
  7  9  1  0
  7 10  1  0
  7 12  4  0
  7 13  4  0
  7 14  4  0
  9 10  2  0
  9 12  3  0
 10 14  2  0
 11 12  3  0
 11 15  3  0
M  END
$$$$

 Created by Python create_sdf_string function

 28 19  0  0  0  0  0  0  0  0999 V2000
    0.1548  -10.6618   16.6275 C   0  0  0  0  0  0  0  0  0  0  0  0
    6.4564   -6.6381   27.8787 C   0  0  0  0  0  0  0  0  0  0  0  0
    6.9615   -7.6174   27.7003 C   0  0  0  0  0  0  0  0  0  0  0  0
    3.2464   -7.7053   26.6162 N   0  0  0  0  0  0  0  0  0  0  0  0
    1.3424   -8.2588   27.0498 C   0  0  0  0  0  0  0  0  0  0  0  0
    2.2290   -8.3877   27.8970 C   0  0  0  0  0  0  0  0  0  0  0  0
    1.6852  -10.5416   17.5870 C   0  0  0  0  0  0  0  0  0  0  0  0
    1.9125   -9.9879   17.3281 C   0  0  0  0  0  0  0  0  0  0  0  0
    5.5734   -8.3326   28.1492 C   0  0  0  0  0  0  0  0  0  0  0  0
    3.9560   -9.4307   17.5952 C   0  0  0  0  0  0  0  0  0  0  0  0
    4.0080   -7.2735   16.4294 C   0  0  0  0  0  0  0  0  0  0  0  0
    4.5510   -8.1655   17.1055 C   0  0  0  0  0  0  0  0  0  0  0  0
    1.7480   -8.0192   16.3623 C   0  0  0  0  0  0  0  0  0  0  0  0
    3.5380   -7.9583   27.3973 C   0  0  0  0  0  0  0  0  0  0  0  0
    1.7091  -11.1225   18.3199 C   0  0  0  0  0  0  0  0  0  0  0  0
    4.9091  -10.2478   30.2985 C   0  0  0  0  0  0  0  0  0  0  0  0
    5.5055   -7.2422   26.3506 C   0  0  0  0  0  0  0  0  0  0  0  0
    4.6238  -11.1297   31.1642 C   0  0  0  0  0  0  0  0  0  0  0  0
    4.1718   -7.4012   26.2198 C   0  0  0  0  0  0  0  0  0  0  0  0
    4.2008   -8.8292   28.5704 C   0  0  0  0  0  0  0  0  0  0  0  0
    6.4039   -8.8986   29.1507 C   0  0  0  0  0  0  0  0  0  0  0  0
    0.2970  -10.8474   18.2638 C   0  0  0  0  0  0  0  0  0  0  0  0
    2.7209   -7.0252   16.0746 C   0  0  0  0  0  0  0  0  0  0  0  0
    0.0823  -11.3487   17.3929 C   0  0  0  0  0  0  0  0  0  0  0  0
    6.1811   -9.8863   30.1137 C   0  0  0  0  0  0  0  0  0  0  0  0
    2.9443   -8.9942   28.6052 C   0  0  0  0  0  0  0  0  0  0  0  0
    2.0150   -9.2190   17.0231 C   0  0  0  0  0  0  0  0  0  0  0  0
    3.9745   -9.6006   29.4218 N   0  0  0  0  0  0  0  0  0  0  0  0
  1 24  4  0
  4 19  1  0
  5  6  1  0
  7 15  4  0
  8 27  4  0
  9 20  4  0
  9 21  4  0
 10 12  4  0
 11 12  4  0
 11 23  4  0
 13 23  4  0
 13 27  4  0
 15 22  4  0
 16 18  1  0
 16 25  4  0
 16 28  4  0
 17 19  1  0
 20 28  4  0
 21 25  4  0
M  END
$$$$

 Created by Python create_sdf_string function

 28 37  0  0  0  0  0  0  0  0999 V2000
   -0.2077  -10.9990   16.2762 C   0  0  0  0  0  0  0  0  0  0  0  0
    4.7274   -6.8823   27.2325 S   0  0  0  0  0  0  0  0  0  0  0  0
    3.8384   -9.3884   27.0388 C   0  0  0  0  0  0  0  0  0  0  0  0
    3.8227   -9.2177   17.0946 C   0  0  0  0  0  0  0  0  0  0  0  0
    3.9866   -7.4500   16.5185 C   0  0  0  0  0  0  0  0  0  0  0  0
    4.3946   -8.6629   17.3334 C   0  0  0  0  0  0  0  0  0  0  0  0
    1.7388  -10.6841   18.0519 C   0  0  0  0  0  0  0  0  0  0  0  0
    5.2005   -9.9697   30.0141 F   0  0  0  0  0  0  0  0  0  0  0  0
    5.1878   -6.3893   25.8889 P   0  0  0  0  0  0  0  0  0  0  0  0
    4.0519  -10.9484   30.8551 C   0  0  0  0  0  0  0  0  0  0  0  0
    4.1108   -8.4099   28.2208 Cl  0  0  0  0  0  0  0  0  0  0  0  0
    5.7242   -8.8228   29.2797 C   0  0  0  0  0  0  0  0  0  0  0  0
    0.3666  -11.4132   17.7140 F   0  0  0  0  0  0  0  0  0  0  0  0
    2.3249   -6.7551   16.1256 C   0  0  0  0  0  0  0  0  0  0  0  0
    5.6948   -9.9109   29.9441 C   0  0  0  0  0  0  0  0  0  0  0  0
    2.0619   -9.5061   16.8326 Se  0  0  0  0  0  0  0  0  0  0  0  0
    2.8734   -9.5929   29.2806 N   0  0  0  0  0  0  0  0  0  0  0  0
    5.1052   -6.0916   28.6681 He  0  0  0  0  0  0  0  0  0  0  0  0
    8.2389   -6.7681   27.4148 He  0  0  0  0  0  0  0  0  0  0  0  0
    2.1180   -8.0500   28.3832 He  0  0  0  0  0  0  0  0  0  0  0  0
    2.4497  -11.3166   18.7484 He  0  0  0  0  0  0  0  0  0  0  0  0
    2.3219   -8.7588   16.5800 He  0  0  0  0  0  0  0  0  0  0  0  0
    5.5481   -8.4583   27.8567 He  0  0  0  0  0  0  0  0  0  0  0  0
    1.6545   -8.5451   15.6803 He  0  0  0  0  0  0  0  0  0  0  0  0
    2.6014   -7.7095   28.5034 He  0  0  0  0  0  0  0  0  0  0  0  0
    2.8985   -6.1717   26.5750 He  0  0  0  0  0  0  0  0  0  0  0  0
    1.8176  -11.4992   16.7260 He  0  0  0  0  0  0  0  0  0  0  0  0
    2.2826   -9.1875   28.5113 He  0  0  0  0  0  0  0  0  0  0  0  0
  1 11  1  0
  2  5  2  0
  2  6  2  0
  2  9  2  0
  2 10  3  0
  2 14  1  0
  2 15  1  0
  2 16  4  0
  3  4  2  0
  3  9  1  0
  3 11  4  0
  3 14  2  0
  4  6  4  0
  4  7  1  0
  4  9  4  0
  4 13  2  0
  4 14  1  0
  5  6  4  0
  5  8  2  0
  5 11  2  0
  6  7  3  0
  6  9  4  0
  6 13  3  0
  6 14  4  0
  7 12  4  0
  8  9  2  0
  8 14  3  0
  8 15  4  0
  8 17  4  0
  9 12  3  0
  9 16  1  0
  9 17  4  0
 10 16  3  0
 11 13  4  0
 12 15  4  0
 13 14  2  0
 13 15  4  0
M  END
$$$$

 Created by Python create_sdf_string function

 28 17  0  0  0  0  0  0  0  0999 V2000
   -0.0326  -10.8252   16.2234 C   0  0  0  0  0  0  0  0  0  0  0  0
    5.6345   -6.3345   27.6252 C   0  0  0  0  0  0  0  0  0  0  0  0
    7.0905   -7.2926   27.6084 C   0  0  0  0  0  0  0  0  0  0  0  0
    4.7575   -6.8119   27.0767 C   0  0  0  0  0  0  0  0  0  0  0  0
    2.0351   -7.9131   27.7558 C   0  0  0  0  0  0  0  0  0  0  0  0
    3.4912   -8.1549   27.3476 C   0  0  0  0  0  0  0  0  0  0  0  0
    1.6416  -11.1394   18.2053 C   0  0  0  0  0  0  0  0  0  0  0  0
    2.1309   -9.1224   16.7474 C   0  0  0  0  0  0  0  0  0  0  0  0
    5.5709   -8.2770   28.2342 C   0  0  0  0  0  0  0  0  0  0  0  0
    3.5838   -9.4176   17.4516 C   0  0  0  0  0  0  0  0  0  0  0  0
    4.0385   -7.3977   16.4595 C   0  0  0  0  0  0  0  0  0  0  0  0
    4.4442   -8.3789   17.1374 C   0  0  0  0  0  0  0  0  0  0  0  0
    1.3965   -8.2739   15.9432 C   0  0  0  0  0  0  0  0  0  0  0  0
    2.1894   -7.7017   27.7546 C   0  0  0  0  0  0  0  0  0  0  0  0
    1.8773  -10.7364   18.0029 C   0  0  0  0  0  0  0  0  0  0  0  0
    4.5091  -10.1112   30.0209 C   0  0  0  0  0  0  0  0  0  0  0  0
    5.2008   -6.6536   26.6576 C   0  0  0  0  0  0  0  0  0  0  0  0
    4.2036  -11.0267   30.9758 C   0  0  0  0  0  0  0  0  0  0  0  0
    2.9405   -6.4987   26.7533 C   0  0  0  0  0  0  0  0  0  0  0  0
    4.0284   -8.5512   28.2168 C   0  0  0  0  0  0  0  0  0  0  0  0
    6.3300   -8.8882   29.0458 C   0  0  0  0  0  0  0  0  0  0  0  0
    0.2374  -11.4596   17.5362 C   0  0  0  0  0  0  0  0  0  0  0  0
    2.6920   -7.1901   15.9890 C   0  0  0  0  0  0  0  0  0  0  0  0
    0.9535  -11.3241   16.8316 C   0  0  0  0  0  0  0  0  0  0  0  0
    5.8186   -9.7453   29.9410 C   0  0  0  0  0  0  0  0  0  0  0  0
    1.8499   -8.7010   28.1487 C   0  0  0  0  0  0  0  0  0  0  0  0
    1.8764   -9.7378   16.9632 C   0  0  0  0  0  0  0  0  0  0  0  0
    3.4526   -9.5926   29.2413 N   0  0  0  0  0  0  0  0  0  0  0  0
  1 24  1  0
  6 20  4  0
  7 15  4  0
  8 10  4  0
  8 13  4  0
  8 27  4  0
  9 20  4  0
  9 21  4  0
 10 12  4  0
 11 12  4  0
 11 23  4  0
 13 23  4  0
 16 18  1  0
 16 25  4  0
 16 28  4  0
 20 28  4  0
 21 25  4  0
M  END
$$$$

 Created by Python create_sdf_string function

 28 55  0  0  0  0  0  0  0  0999 V2000
    0.2741  -11.0111   15.0821 F   0  0  0  0  0  0  0  0  0  0  0  0
    3.3258   -6.0874   28.4423 S   0  0  0  0  0  0  0  0  0  0  0  0
    5.4723   -9.3337   27.3428 B   0  0  0  0  0  0  0  0  0  0  0  0
    0.0789  -10.7907   17.1053 C   0  0  0  0  0  0  0  0  0  0  0  0
    5.8405   -8.5266   28.0042 P   0  0  0  0  0  0  0  0  0  0  0  0
    4.3880   -9.7680   17.5750 O   0  0  0  0  0  0  0  0  0  0  0  0
    3.4466   -7.7327   16.6772 C   0  0  0  0  0  0  0  0  0  0  0  0
    4.8908   -7.7805   16.7903 C   0  0  0  0  0  0  0  0  0  0  0  0
    1.0856   -8.4871   15.7303 C   0  0  0  0  0  0  0  0  0  0  0  0
    2.1163  -10.2438   18.0734 C   0  0  0  0  0  0  0  0  0  0  0  0
    4.7425  -10.4262   29.7268 C   0  0  0  0  0  0  0  0  0  0  0  0
    5.1939   -6.3558   25.7309 N   0  0  0  0  0  0  0  0  0  0  0  0
    4.3326   -8.7875   28.2209 C   0  0  0  0  0  0  0  0  0  0  0  0
    6.2944   -8.7595   28.6832 N   0  0  0  0  0  0  0  0  0  0  0  0
    2.1063  -12.0326   18.5183 P   0  0  0  0  0  0  0  0  0  0  0  0
    2.3753   -6.1386   15.1676 C   0  0  0  0  0  0  0  0  0  0  0  0
    5.5476   -9.4412   30.1181 C   0  0  0  0  0  0  0  0  0  0  0  0
    4.1430   -7.6719   28.4193 O   0  0  0  0  0  0  0  0  0  0  0  0
    1.5258   -9.3496   16.8546 C   0  0  0  0  0  0  0  0  0  0  0  0
    3.3806   -9.9054   29.1685 N   0  0  0  0  0  0  0  0  0  0  0  0
    6.3817   -6.1402   27.6633 He  0  0  0  0  0  0  0  0  0  0  0  0
    7.4467   -7.1217   28.3366 He  0  0  0  0  0  0  0  0  0  0  0  0
    1.9786   -8.2811   27.4350 He  0  0  0  0  0  0  0  0  0  0  0  0
    0.8257  -10.9453   16.0401 He  0  0  0  0  0  0  0  0  0  0  0  0
    1.4634   -7.1119   28.7559 He  0  0  0  0  0  0  0  0  0  0  0  0
    4.1218  -11.2706   30.3746 He  0  0  0  0  0  0  0  0  0  0  0  0
    1.3594   -6.8963   25.9922 He  0  0  0  0  0  0  0  0  0  0  0  0
    1.2517  -10.7817   16.9524 He  0  0  0  0  0  0  0  0  0  0  0  0
  1 18  4  0
  1 20  4  0
  2  3  2  0
  2  4  2  0
  2  6  4  0
  2 10  1  0
  2 15  1  0
  3  5  4  0
  3  6  3  0
  3 11  1  0
  3 12  4  0
  3 14  1  0
  3 20  4  0
  4  7  2  0
  4  8  2  0
  4 10  1  0
  4 11  2  0
  4 13  4  0
  4 14  2  0
  4 17  2  0
  5  9  1  0
  5 13  4  0
  5 14  4  0
  5 15  4  0
  5 16  3  0
  6 12  1  0
  6 15  1  0
  6 18  3  0
  7  8  4  0
  7 13  2  0
  7 16  3  0
  8 11  1  0
  8 12  3  0
  8 18  2  0
  9 12  3  0
  9 14  2  0
  9 16  4  0
  9 17  1  0
 10 12  4  0
 11 12  1  0
 11 16  3  0
 11 17  4  0
 11 20  4  0
 12 13  2  0
 12 14  2  0
 12 17  4  0
 12 18  1  0
 12 20  3  0
 13 18  4  0
 13 19  3  0
 13 20  4  0
 14 17  4  0
 15 20  3  0
 17 18  4  0
 17 20  4  0
M  END
$$$$

 Created by Python create_sdf_string function

 28 21  0  0  0  0  0  0  0  0999 V2000
    0.1330  -10.8138   15.0481 C   0  0  0  0  0  0  0  0  0  0  0  0
    6.3711   -6.5017   27.2458 C   0  0  0  0  0  0  0  0  0  0  0  0
    7.3116   -7.4043   27.6427 C   0  0  0  0  0  0  0  0  0  0  0  0
    3.1296   -6.3669   27.5902 C   0  0  0  0  0  0  0  0  0  0  0  0
    2.0514   -7.8903   27.5570 C   0  0  0  0  0  0  0  0  0  0  0  0
    5.6241   -7.9281   27.2542 C   0  0  0  0  0  0  0  0  0  0  0  0
    0.3698  -10.9849   16.9932 C   0  0  0  0  0  0  0  0  0  0  0  0
    0.6186  -10.4699   16.1265 C   0  0  0  0  0  0  0  0  0  0  0  0
    5.5852   -8.4351   28.1276 C   0  0  0  0  0  0  0  0  0  0  0  0
    3.6782   -9.3294   17.4845 C   0  0  0  0  0  0  0  0  0  0  0  0
    3.6690   -7.2846   16.2569 C   0  0  0  0  0  0  0  0  0  0  0  0
    4.2971   -8.0909   16.9806 C   0  0  0  0  0  0  0  0  0  0  0  0
    1.5585   -8.3364   15.8460 C   0  0  0  0  0  0  0  0  0  0  0  0
    1.7027   -7.3265   28.0658 C   0  0  0  0  0  0  0  0  0  0  0  0
    2.1699  -10.6508   18.0076 C   0  0  0  0  0  0  0  0  0  0  0  0
    4.5720  -10.3303   29.8115 C   0  0  0  0  0  0  0  0  0  0  0  0
    4.8489   -6.7761   26.5516 C   0  0  0  0  0  0  0  0  0  0  0  0
    4.2395  -11.3660   30.6018 N   0  0  0  0  0  0  0  0  0  0  0  0
    1.9865   -6.6758   26.8858 C   0  0  0  0  0  0  0  0  0  0  0  0
    4.1351   -8.6234   28.2140 C   0  0  0  0  0  0  0  0  0  0  0  0
    6.4023   -9.0316   29.0123 N   0  0  0  0  0  0  0  0  0  0  0  0
    1.7422  -11.1942   18.1069 C   0  0  0  0  0  0  0  0  0  0  0  0
    2.4556   -7.1514   15.7603 C   0  0  0  0  0  0  0  0  0  0  0  0
    1.0431  -10.7755   17.1432 C   0  0  0  0  0  0  0  0  0  0  0  0
    5.8159   -9.9613   29.8184 C   0  0  0  0  0  0  0  0  0  0  0  0
    3.6678   -7.7334   27.4455 C   0  0  0  0  0  0  0  0  0  0  0  0
    1.9553   -9.3598   16.6685 C   0  0  0  0  0  0  0  0  0  0  0  0
    3.6879   -9.6577   29.0469 N   0  0  0  0  0  0  0  0  0  0  0  0
  1  8  1  0
  2  3  1  0
  5 14  1  0
  5 19  1  0
  6  9  4  0
  7  8  4  0
  9 20  4  0
  9 21  4  0
 10 12  4  0
 10 27  4  0
 11 12  4  0
 11 23  4  0
 13 23  4  0
 13 27  4  0
 15 22  4  0
 16 18  1  0
 16 25  4  0
 16 28  4  0
 20 26  4  0
 20 28  4  0
 21 25  4  0
M  END
$$$$

 Created by Python create_sdf_string function

 28 89  0  0  0  0  0  0  0  0999 V2000
    7.3315   -8.7729   26.2559 N   0  0  0  0  0  0  0  0  0  0  0  0
    4.6518   -8.1162   26.3815 S   0  0  0  0  0  0  0  0  0  0  0  0
   -0.7257  -13.4779   16.7851 O   0  0  0  0  0  0  0  0  0  0  0  0
    0.8749  -10.5599   15.3480 C   0  0  0  0  0  0  0  0  0  0  0  0
    3.1040   -9.1379   17.2182 C   0  0  0  0  0  0  0  0  0  0  0  0
    3.5882   -7.1612   16.2095 C   0  0  0  0  0  0  0  0  0  0  0  0
    4.5536   -8.3099   16.7362 C   0  0  0  0  0  0  0  0  0  0  0  0
    1.3922   -8.3047   16.1754 C   0  0  0  0  0  0  0  0  0  0  0  0
    2.1587   -7.3125   29.2270 N   0  0  0  0  0  0  0  0  0  0  0  0
    4.8575  -10.7120   30.2610 C   0  0  0  0  0  0  0  0  0  0  0  0
    5.4403   -8.7902   25.7200 C   0  0  0  0  0  0  0  0  0  0  0  0
    4.1635  -11.7599   30.5809 N   0  0  0  0  0  0  0  0  0  0  0  0
    2.9125   -6.4903   27.0946 O   0  0  0  0  0  0  0  0  0  0  0  0
    4.0823   -8.0780   28.4305 C   0  0  0  0  0  0  0  0  0  0  0  0
    6.4500   -9.5470   28.5919 Cl  0  0  0  0  0  0  0  0  0  0  0  0
    2.1358  -12.7184   18.3856 F   0  0  0  0  0  0  0  0  0  0  0  0
    2.2630   -6.7861   16.4903 C   0  0  0  0  0  0  0  0  0  0  0  0
    1.7088   -9.5908   17.6939 Cl  0  0  0  0  0  0  0  0  0  0  0  0
    6.0642  -10.4127   29.9546 C   0  0  0  0  0  0  0  0  0  0  0  0
    2.8595   -6.9827   28.7453 N   0  0  0  0  0  0  0  0  0  0  0  0
    1.9952   -8.9678   17.0044 C   0  0  0  0  0  0  0  0  0  0  0  0
    3.8382  -10.3051   29.1136 N   0  0  0  0  0  0  0  0  0  0  0  0
   -0.2742  -10.7870   15.0444 He  0  0  0  0  0  0  0  0  0  0  0  0
    5.9738   -6.7242   26.9515 He  0  0  0  0  0  0  0  0  0  0  0  0
    4.2068   -5.3196   28.3850 He  0  0  0  0  0  0  0  0  0  0  0  0
    1.3001   -7.7730   28.4257 He  0  0  0  0  0  0  0  0  0  0  0  0
    5.4780   -7.8898   28.3313 He  0  0  0  0  0  0  0  0  0  0  0  0
    1.7644  -10.7625   17.6798 He  0  0  0  0  0  0  0  0  0  0  0  0
  1  4  2  0
  1  9  4  0
  1 13  2  0
  1 16  4  0
  1 19  2  0
  2  5  4  0
  2  8  2  0
  2  9  3  0
  2 14  4  0
  2 17  3  0
  2 20  4  0
  2 22  3  0
  3  4  4  0
  3  5  1  0
  3  7  4  0
  3 11  2  0
  3 12  4  0
  3 15  4  0
  3 16  1  0
  3 20  1  0
  4 12  1  0
  4 13  1  0
  4 14  4  0
  4 19  2  0
  4 20  1  0
  4 21  2  0
  5  7  4  0
  5 20  1  0
  6  7  4  0
  6  9  4  0
  6 11  4  0
  6 13  1  0
  6 15  1  0
  6 17  4  0
  6 18  1  0
  6 21  4  0
  7  9  1  0
  7 11  1  0
  7 18  1  0
  7 20  4  0
  7 21  1  0
  7 22  4  0
  8 11  2  0
  8 13  3  0
  8 17  4  0
  8 19  1  0
  8 20  3  0
  8 21  4  0
  9 10  3  0
  9 11  1  0
  9 12  3  0
  9 14  4  0
  9 20  1  0
  9 21  4  0
 10 12  1  0
 10 16  1  0
 10 19  3  0
 11 15  4  0
 11 19  2  0
 11 21  2  0
 11 22  2  0
 12 13  2  0
 12 14  2  0
 13 14  3  0
 13 15  4  0
 13 16  2  0
 13 19  2  0
 13 20  1  0
 14 16  1  0
 14 20  4  0
 14 21  1  0
 14 22  4  0
 15 16  2  0
 15 18  4  0
 15 19  4  0
 15 20  1  0
 15 22  2  0
 16 17  1  0
 16 20  1  0
 16 21  2  0
 16 22  3  0
 17 19  1  0
 17 20  4  0
 18 19  4  0
 18 20  4  0
 18 21  2  0
 18 22  1  0
 19 20  1  0
 20 22  4  0
M  END
$$$$

 Created by Python create_sdf_string function

 28 18  0  0  0  0  0  0  0  0999 V2000
   -0.0528  -10.9274   15.7846 C   0  0  0  0  0  0  0  0  0  0  0  0
    5.6878   -6.7275   27.0482 C   0  0  0  0  0  0  0  0  0  0  0  0
    6.6443   -7.8839   27.0332 C   0  0  0  0  0  0  0  0  0  0  0  0
    4.1402   -6.0766   27.8992 C   0  0  0  0  0  0  0  0  0  0  0  0
    1.6617   -7.7673   28.6170 C   0  0  0  0  0  0  0  0  0  0  0  0
    4.6712   -7.4554   26.9795 C   0  0  0  0  0  0  0  0  0  0  0  0
   -0.0717  -12.4059   16.8261 O   0  0  0  0  0  0  0  0  0  0  0  0
    0.2463  -10.9265   16.0950 C   0  0  0  0  0  0  0  0  0  0  0  0
    5.3131   -8.5496   28.1946 C   0  0  0  0  0  0  0  0  0  0  0  0
    3.4018   -9.3228   17.1276 C   0  0  0  0  0  0  0  0  0  0  0  0
    3.6276   -7.0980   16.3644 C   0  0  0  0  0  0  0  0  0  0  0  0
    4.2516   -8.1938   16.8911 C   0  0  0  0  0  0  0  0  0  0  0  0
    1.4507   -8.1046   16.3256 C   0  0  0  0  0  0  0  0  0  0  0  0
    2.3748   -7.5275   28.7301 C   0  0  0  0  0  0  0  0  0  0  0  0
    1.2226  -11.3241   17.5033 C   0  0  0  0  0  0  0  0  0  0  0  0
    4.6611  -10.5704   29.9926 C   0  0  0  0  0  0  0  0  0  0  0  0
    5.6749   -7.8983   26.3179 C   0  0  0  0  0  0  0  0  0  0  0  0
    4.3468  -11.6145   30.7184 N   0  0  0  0  0  0  0  0  0  0  0  0
    2.8741   -6.5793   27.2734 C   0  0  0  0  0  0  0  0  0  0  0  0
    3.9954   -8.6523   28.6910 C   0  0  0  0  0  0  0  0  0  0  0  0
    6.3443   -9.1719   28.8848 C   0  0  0  0  0  0  0  0  0  0  0  0
    1.3016  -11.7968   17.8881 C   0  0  0  0  0  0  0  0  0  0  0  0
    2.2582   -6.9815   16.1197 C   0  0  0  0  0  0  0  0  0  0  0  0
    1.2856  -10.4879   17.1784 C   0  0  0  0  0  0  0  0  0  0  0  0
    5.9603  -10.1755   29.7069 C   0  0  0  0  0  0  0  0  0  0  0  0
    2.8023   -7.4668   28.3535 N   0  0  0  0  0  0  0  0  0  0  0  0
    2.0576   -9.2749   16.8486 C   0  0  0  0  0  0  0  0  0  0  0  0
    3.6846   -9.6932   29.4863 N   0  0  0  0  0  0  0  0  0  0  0  0
  1  8  4  0
  3 17  1  0
  9 20  4  0
  9 21  4  0
 10 12  4  0
 10 27  4  0
 11 12  4  0
 11 23  4  0
 13 23  4  0
 13 27  4  0
 14 26  1  0
 15 22  4  0
 16 18  1  0
 16 25  4  0
 16 28  4  0
 20 28  4  0
 21 25  4  0
 24 27  1  0
M  END
$$$$

 Created by Python create_sdf_string function

 28 70  0  0  0  0  0  0  0  0999 V2000
    0.8264  -10.8438   15.5387 C   0  0  0  0  0  0  0  0  0  0  0  0
    4.9041   -7.7323   26.7772 S   0  0  0  0  0  0  0  0  0  0  0  0
    2.7865   -7.6210   26.9029 Se  0  0  0  0  0  0  0  0  0  0  0  0
   -0.7069  -13.8592   15.6920 C   0  0  0  0  0  0  0  0  0  0  0  0
    0.4524   -9.1435   14.9353 N   0  0  0  0  0  0  0  0  0  0  0  0
    5.0167   -9.3352   28.7395 C   0  0  0  0  0  0  0  0  0  0  0  0
    3.1580   -9.7275   17.8169 C   0  0  0  0  0  0  0  0  0  0  0  0
    3.6797   -7.3974   16.2660 C   0  0  0  0  0  0  0  0  0  0  0  0
    3.9225   -8.5941   16.4932 C   0  0  0  0  0  0  0  0  0  0  0  0
    1.4427   -8.5424   16.0850 C   0  0  0  0  0  0  0  0  0  0  0  0
    0.6923  -10.4524   17.5947 P   0  0  0  0  0  0  0  0  0  0  0  0
    8.4594   -9.6597   25.3122 S   0  0  0  0  0  0  0  0  0  0  0  0
    4.7958  -11.3762   30.2133 N   0  0  0  0  0  0  0  0  0  0  0  0
    4.7204   -6.6365   28.7382 C   0  0  0  0  0  0  0  0  0  0  0  0
    3.9033   -8.4918   28.4004 C   0  0  0  0  0  0  0  0  0  0  0  0
    6.5803   -9.6052   28.9550 C   0  0  0  0  0  0  0  0  0  0  0  0
    2.4032  -12.8833   19.2991 P   0  0  0  0  0  0  0  0  0  0  0  0
    2.6413   -6.8126   16.1674 C   0  0  0  0  0  0  0  0  0  0  0  0
    5.9230   -9.6723   29.7022 C   0  0  0  0  0  0  0  0  0  0  0  0
    1.9729   -6.4195   29.6119 N   0  0  0  0  0  0  0  0  0  0  0  0
    3.5920   -9.9778   29.7151 N   0  0  0  0  0  0  0  0  0  0  0  0
    5.6549   -6.6796   26.4715 He  0  0  0  0  0  0  0  0  0  0  0  0
    0.8038   -8.3453   29.3625 He  0  0  0  0  0  0  0  0  0  0  0  0
    5.4141   -7.4213   28.9476 He  0  0  0  0  0  0  0  0  0  0  0  0
    1.6444   -6.4711   27.6310 He  0  0  0  0  0  0  0  0  0  0  0  0
    5.2155  -10.3737   29.6862 He  0  0  0  0  0  0  0  0  0  0  0  0
    0.6160  -10.0854   17.8849 He  0  0  0  0  0  0  0  0  0  0  0  0
    2.5845   -8.7848   16.9056 He  0  0  0  0  0  0  0  0  0  0  0  0
  1  2  1  0
  1  4  4  0
  1 10  3  0
  1 11  2  0
  1 12  3  0
  1 13  2  0
  2  5  2  0
  2  6  4  0
  2  7  1  0
  2  8  1  0
  2 10  1  0
  2 14  4  0
  2 15  3  0
  2 16  1  0
  2 17  4  0
  2 18  4  0
  2 19  2  0
  2 20  4  0
  2 21  2  0
  3  6  4  0
  3 10  2  0
  3 11  2  0
  3 18  4  0
  3 19  3  0
  3 20  3  0
  4  8  3  0
  4 12  1  0
  4 13  1  0
  4 16  1  0
  4 17  2  0
  5  7  1  0
  5  9  4  0
  5 10  1  0
  5 13  4  0
  5 18  1  0
  5 19  2  0
  5 20  3  0
  5 21  4  0
  6  8  4  0
  6 14  1  0
  6 16  4  0
  6 19  1  0
  7  9  4  0
  7 12  1  0
  7 13  4  0
  7 14  2  0
  8  9  4  0
  8 14  4  0
  8 18  1  0
  8 21  3  0
  9 10  4  0
  9 12  2  0
  9 14  4  0
  9 15  2  0
 10 11  1  0
 10 14  3  0
 10 18  2  0
 11 13  2  0
 11 20  1  0
 13 17  2  0
 13 20  2  0
 14 18  1  0
 15 18  4  0
 15 21  4  0
 16 17  2  0
 16 19  4  0
 16 20  2  0
 17 20  3  0
 17 21  2  0
 18 20  2  0
M  END
$$$$

 Created by Python create_sdf_string function

 28 19  0  0  0  0  0  0  0  0999 V2000
    0.3364  -10.9289   15.7008 C   0  0  0  0  0  0  0  0  0  0  0  0
    5.1172   -7.5451   26.7100 C   0  0  0  0  0  0  0  0  0  0  0  0
    5.2778   -7.0352   26.5334 C   0  0  0  0  0  0  0  0  0  0  0  0
    2.9923   -7.0905   27.2626 C   0  0  0  0  0  0  0  0  0  0  0  0
    1.8378   -7.9490   28.9704 C   0  0  0  0  0  0  0  0  0  0  0  0
    5.1212   -6.8303   28.0410 C   0  0  0  0  0  0  0  0  0  0  0  0
   -0.0949  -12.1642   16.5432 C   0  0  0  0  0  0  0  0  0  0  0  0
    0.3611   -9.1163   15.8365 C   0  0  0  0  0  0  0  0  0  0  0  0
    5.1086   -8.4231   28.3961 C   0  0  0  0  0  0  0  0  0  0  0  0
    3.3302   -9.4122   17.3626 C   0  0  0  0  0  0  0  0  0  0  0  0
    3.8213   -7.3231   16.2821 C   0  0  0  0  0  0  0  0  0  0  0  0
    4.1747   -8.3901   16.9999 C   0  0  0  0  0  0  0  0  0  0  0  0
    1.6909   -8.3923   16.1450 C   0  0  0  0  0  0  0  0  0  0  0  0
    1.7601   -6.7024   27.7535 C   0  0  0  0  0  0  0  0  0  0  0  0
    0.5814  -10.6861   17.4099 C   0  0  0  0  0  0  0  0  0  0  0  0
    4.7522  -10.4708   29.9093 C   0  0  0  0  0  0  0  0  0  0  0  0
    6.8878   -7.7359   26.8473 C   0  0  0  0  0  0  0  0  0  0  0  0
    4.6508  -11.5584   30.5837 N   0  0  0  0  0  0  0  0  0  0  0  0
    4.0739   -7.0318   27.8754 C   0  0  0  0  0  0  0  0  0  0  0  0
    3.8198   -8.6298   28.8049 C   0  0  0  0  0  0  0  0  0  0  0  0
    6.3127   -9.1438   28.7728 C   0  0  0  0  0  0  0  0  0  0  0  0
    1.0062  -11.6005   18.1906 C   0  0  0  0  0  0  0  0  0  0  0  0
    2.5028   -7.1962   15.9344 C   0  0  0  0  0  0  0  0  0  0  0  0
    0.6508  -10.5010   17.5640 C   0  0  0  0  0  0  0  0  0  0  0  0
    6.0273  -10.0833   29.5670 C   0  0  0  0  0  0  0  0  0  0  0  0
    2.0156   -7.1132   28.8126 C   0  0  0  0  0  0  0  0  0  0  0  0
    2.1299   -9.2032   16.8147 C   0  0  0  0  0  0  0  0  0  0  0  0
    3.6362   -9.7380   29.5625 N   0  0  0  0  0  0  0  0  0  0  0  0
  2  3  1  0
  4 14  1  0
  5 26  1  0
  8 13  1  0
  9 20  4  0
  9 21  4  0
 10 12  4  0
 10 27  4  0
 11 12  4  0
 11 23  4  0
 13 23  4  0
 13 27  4  0
 14 26  1  0
 15 24  1  0
 16 18  1  0
 16 25  4  0
 16 28  4  0
 20 28  4  0
 21 25  4  0
M  END
$$$$

 Created by Python create_sdf_string function

 28 48  0  0  0  0  0  0  0  0999 V2000
    0.4514  -10.4729   15.4703 C   0  0  0  0  0  0  0  0  0  0  0  0
    4.7194   -8.8304   27.0893 O   0  0  0  0  0  0  0  0  0  0  0  0
    5.8217   -6.2656   28.1897 C   0  0  0  0  0  0  0  0  0  0  0  0
    3.6232   -7.5026   28.3567 F   0  0  0  0  0  0  0  0  0  0  0  0
    5.2974   -8.6776   28.2783 F   0  0  0  0  0  0  0  0  0  0  0  0
    4.6070   -8.5789   28.6866 C   0  0  0  0  0  0  0  0  0  0  0  0
    3.3481  -10.5386   17.2127 C   0  0  0  0  0  0  0  0  0  0  0  0
    3.5606   -7.2879   15.9803 C   0  0  0  0  0  0  0  0  0  0  0  0
    4.4481   -7.8911   16.3827 C   0  0  0  0  0  0  0  0  0  0  0  0
    1.7584   -8.0728   15.8308 C   0  0  0  0  0  0  0  0  0  0  0  0
    4.8740  -10.0761   29.7083 C   0  0  0  0  0  0  0  0  0  0  0  0
    4.8056  -11.3486   30.5147 N   0  0  0  0  0  0  0  0  0  0  0  0
    6.0139   -8.7069   28.4064 P   0  0  0  0  0  0  0  0  0  0  0  0
    1.9823   -7.1666   15.9674 C   0  0  0  0  0  0  0  0  0  0  0  0
    0.6402  -10.7480   17.8474 P   0  0  0  0  0  0  0  0  0  0  0  0
    5.5062  -10.3905   29.5049 C   0  0  0  0  0  0  0  0  0  0  0  0
    1.3385   -7.5175   28.1016 Cl  0  0  0  0  0  0  0  0  0  0  0  0
    1.5371   -9.5331   16.6806 C   0  0  0  0  0  0  0  0  0  0  0  0
    3.9953   -9.9948   29.4891 P   0  0  0  0  0  0  0  0  0  0  0  0
    1.2979   -8.0859   28.5352 He  0  0  0  0  0  0  0  0  0  0  0  0
    0.8134  -11.3381   16.7907 He  0  0  0  0  0  0  0  0  0  0  0  0
   -0.2874   -9.5541   15.9511 He  0  0  0  0  0  0  0  0  0  0  0  0
    2.0653   -6.7574   28.2514 He  0  0  0  0  0  0  0  0  0  0  0  0
    0.3712  -11.1526   17.4493 He  0  0  0  0  0  0  0  0  0  0  0  0
    4.9321   -8.2705   26.9311 He  0  0  0  0  0  0  0  0  0  0  0  0
    4.0529   -7.0925   27.1277 He  0  0  0  0  0  0  0  0  0  0  0  0
    3.8701   -9.0186   29.3075 He  0  0  0  0  0  0  0  0  0  0  0  0
    0.6847  -11.8364   16.7879 He  0  0  0  0  0  0  0  0  0  0  0  0
  1  2  1  0
  1 12  1  0
  1 15  2  0
  1 17  1  0
  2  5  2  0
  2  8  2  0
  2 19  1  0
  3  5  2  0
  3  6  4  0
  3 10  4  0
  3 11  3  0
  3 12  4  0
  3 15  4  0
  3 19  4  0
  4  6  3  0
  4  7  3  0
  4  8  1  0
  4 13  2  0
  4 17  4  0
  4 19  1  0
  5 12  1  0
  5 14  2  0
  5 15  3  0
  5 17  3  0
  6 15  3  0
  6 17  1  0
  7 12  2  0
  7 15  1  0
  7 17  2  0
  7 18  4  0
  8 13  4  0
  8 19  2  0
  9 10  2  0
  9 19  4  0
 10 13  4  0
 10 14  4  0
 10 15  3  0
 10 17  3  0
 10 18  1  0
 11 16  4  0
 11 18  2  0
 11 19  4  0
 12 15  4  0
 13 16  4  0
 13 17  4  0
 14 15  3  0
 15 18  2  0
 15 19  4  0
M  END
$$$$

 Created by Python create_sdf_string function

 28 23  0  0  0  0  0  0  0  0999 V2000
    0.1770  -10.7980   15.6251 C   0  0  0  0  0  0  0  0  0  0  0  0
    4.9203   -7.9747   26.5495 C   0  0  0  0  0  0  0  0  0  0  0  0
    5.8168   -6.6924   27.7400 C   0  0  0  0  0  0  0  0  0  0  0  0
    3.2696   -7.1988   27.8318 C   0  0  0  0  0  0  0  0  0  0  0  0
    1.4993   -8.0971   28.7876 C   0  0  0  0  0  0  0  0  0  0  0  0
    5.4087   -8.3799   28.3509 C   0  0  0  0  0  0  0  0  0  0  0  0
    0.7204  -10.6887   16.6813 C   0  0  0  0  0  0  0  0  0  0  0  0
    0.1395   -9.7917   16.0572 C   0  0  0  0  0  0  0  0  0  0  0  0
    4.4074   -8.3487   28.4080 C   0  0  0  0  0  0  0  0  0  0  0  0
    3.4639   -9.3018   16.9596 C   0  0  0  0  0  0  0  0  0  0  0  0
    3.5428   -7.1783   16.0641 C   0  0  0  0  0  0  0  0  0  0  0  0
    4.2125   -8.1620   16.6499 C   0  0  0  0  0  0  0  0  0  0  0  0
    1.5579   -8.3311   16.0957 C   0  0  0  0  0  0  0  0  0  0  0  0
    1.9854   -6.9688   28.0002 C   0  0  0  0  0  0  0  0  0  0  0  0
    0.1366  -11.3911   17.9427 C   0  0  0  0  0  0  0  0  0  0  0  0
    4.8632  -10.4579   30.0568 C   0  0  0  0  0  0  0  0  0  0  0  0
    4.9471   -7.5623   26.3849 C   0  0  0  0  0  0  0  0  0  0  0  0
    4.9099  -11.5489   30.7626 O   0  0  0  0  0  0  0  0  0  0  0  0
    3.8936   -7.1250   27.1265 C   0  0  0  0  0  0  0  0  0  0  0  0
    3.4017   -8.9502   29.1325 C   0  0  0  0  0  0  0  0  0  0  0  0
    6.3239   -8.6698   28.5725 C   0  0  0  0  0  0  0  0  0  0  0  0
   -0.0630  -11.7773   16.8320 C   0  0  0  0  0  0  0  0  0  0  0  0
    2.2085   -7.1503   15.8436 C   0  0  0  0  0  0  0  0  0  0  0  0
    0.7411  -11.0025   17.9135 C   0  0  0  0  0  0  0  0  0  0  0  0
    5.9648  -10.0312   29.6618 C   0  0  0  0  0  0  0  0  0  0  0  0
    1.4034   -7.3813   28.2518 C   0  0  0  0  0  0  0  0  0  0  0  0
    2.1151   -9.3130   16.6296 C   0  0  0  0  0  0  0  0  0  0  0  0
    3.6237  -10.0067   29.8553 C   0  0  0  0  0  0  0  0  0  0  0  0
  1  7  4  0
  1  8  4  0
  1 22  4  0
  2 17  1  0
  4 14  1  0
  4 19  1  0
  5 26  1  0
  6  9  4  0
  9 20  4  0
 10 12  4  0
 10 27  4  0
 11 12  4  0
 11 23  4  0
 13 23  4  0
 13 27  4  0
 14 26  1  0
 15 22  4  0
 15 24  4  0
 16 18  1  0
 16 25  4  0
 16 28  4  0
 20 28  4  0
 21 25  4  0
M  END
$$$$

 Created by Python create_sdf_string function

 28 46  0  0  0  0  0  0  0  0999 V2000
    0.4620  -10.8902   15.2873 C   0  0  0  0  0  0  0  0  0  0  0  0
    5.5900   -6.9087   29.7671 C   0  0  0  0  0  0  0  0  0  0  0  0
    2.8914   -7.9246   27.5496 Cl  0  0  0  0  0  0  0  0  0  0  0  0
    0.4011  -11.5784   15.7219 Cl  0  0  0  0  0  0  0  0  0  0  0  0
   -1.3724  -10.2730   15.7826 C   0  0  0  0  0  0  0  0  0  0  0  0
    3.9223   -9.0577   17.3125 C   0  0  0  0  0  0  0  0  0  0  0  0
    3.7724   -8.4632   16.9480 C   0  0  0  0  0  0  0  0  0  0  0  0
    2.0999   -8.2586   15.5558 C   0  0  0  0  0  0  0  0  0  0  0  0
    2.7186   -7.0908   29.8334 O   0  0  0  0  0  0  0  0  0  0  0  0
    0.3181  -10.8014   17.5367 C   0  0  0  0  0  0  0  0  0  0  0  0
    5.1245  -10.5192   30.3318 C   0  0  0  0  0  0  0  0  0  0  0  0
    5.0898  -12.2098   30.8917 O   0  0  0  0  0  0  0  0  0  0  0  0
    3.0600   -9.0417   28.4387 C   0  0  0  0  0  0  0  0  0  0  0  0
    1.8548   -6.7326   15.7010 C   0  0  0  0  0  0  0  0  0  0  0  0
    2.4890  -10.9251   18.1202 N   0  0  0  0  0  0  0  0  0  0  0  0
    6.0739   -9.3673   29.6847 C   0  0  0  0  0  0  0  0  0  0  0  0
    2.4853   -8.6159   16.6748 C   0  0  0  0  0  0  0  0  0  0  0  0
    3.7637   -9.7630   29.8434 C   0  0  0  0  0  0  0  0  0  0  0  0
    4.6982   -8.3934   26.4463 He  0  0  0  0  0  0  0  0  0  0  0  0
    1.7564  -10.5418   28.2375 He  0  0  0  0  0  0  0  0  0  0  0  0
    5.6901   -6.8579   27.8287 He  0  0  0  0  0  0  0  0  0  0  0  0
    4.3250   -8.4389   28.2174 He  0  0  0  0  0  0  0  0  0  0  0  0
    3.4661   -7.0233   15.7939 He  0  0  0  0  0  0  0  0  0  0  0  0
    4.2064   -6.7584   25.8298 He  0  0  0  0  0  0  0  0  0  0  0  0
    4.7946   -8.0157   26.5544 He  0  0  0  0  0  0  0  0  0  0  0  0
    6.3664   -8.3259   28.9035 He  0  0  0  0  0  0  0  0  0  0  0  0
    0.6117  -11.3932   16.1206 He  0  0  0  0  0  0  0  0  0  0  0  0
    1.2714   -6.9118   28.6733 He  0  0  0  0  0  0  0  0  0  0  0  0
  1  2  1  0
  1  3  1  0
  1  5  1  0
  1  9  1  0
  2  4  4  0
  2  5  2  0
  2  6  3  0
  2 12  1  0
  2 13  2  0
  2 18  1  0
  3 14  4  0
  4  8  4  0
  4  9  3  0
  4 10  1  0
  4 12  4  0
  4 13  1  0
  4 14  3  0
  4 17  4  0
  5  6  2  0
  5 10  1  0
  5 13  1  0
  5 15  3  0
  5 16  1  0
  6  7  4  0
  6 13  2  0
  6 14  1  0
  6 17  4  0
  6 18  1  0
  7 14  2  0
  7 15  2  0
  8 10  1  0
  8 14  4  0
  8 17  4  0
  9 10  4  0
  9 17  4  0
  9 18  4  0
 11 12  1  0
 11 16  4  0
 12 13  2  0
 12 14  3  0
 13 15  3  0
 13 17  2  0
 13 18  4  0
 14 18  2  0
 16 17  2  0
 17 18  3  0
M  END
$$$$

 Created by Python create_sdf_string function

 28 22  0  0  0  0  0  0  0  0999 V2000
    0.2403  -10.7212   14.9953 C   0  0  0  0  0  0  0  0  0  0  0  0
    4.7449   -7.5194   26.1829 C   0  0  0  0  0  0  0  0  0  0  0  0
    5.6862   -7.6835   28.8325 C   0  0  0  0  0  0  0  0  0  0  0  0
    2.7243   -7.5895   27.3190 C   0  0  0  0  0  0  0  0  0  0  0  0
    2.0981   -9.4765   28.5736 C   0  0  0  0  0  0  0  0  0  0  0  0
    5.8064   -6.9831   27.5699 C   0  0  0  0  0  0  0  0  0  0  0  0
    0.3102  -11.3975   16.3862 C   0  0  0  0  0  0  0  0  0  0  0  0
   -0.8162  -10.4667   15.6902 C   0  0  0  0  0  0  0  0  0  0  0  0
    4.0890   -8.1682   28.1232 C   0  0  0  0  0  0  0  0  0  0  0  0
    3.3323   -9.1318   17.0569 C   0  0  0  0  0  0  0  0  0  0  0  0
    3.5070   -7.0701   16.0709 C   0  0  0  0  0  0  0  0  0  0  0  0
    4.0553   -8.0460   16.8528 C   0  0  0  0  0  0  0  0  0  0  0  0
    1.5538   -8.2059   15.7029 C   0  0  0  0  0  0  0  0  0  0  0  0
    2.3521   -7.2467   29.2054 O   0  0  0  0  0  0  0  0  0  0  0  0
    0.8571  -10.9369   17.5072 C   0  0  0  0  0  0  0  0  0  0  0  0
    5.1279  -10.4343   30.2586 C   0  0  0  0  0  0  0  0  0  0  0  0
    3.6339   -7.1059   26.4992 C   0  0  0  0  0  0  0  0  0  0  0  0
    5.1730  -11.5108   30.8129 O   0  0  0  0  0  0  0  0  0  0  0  0
    5.2481   -7.7075   26.6430 C   0  0  0  0  0  0  0  0  0  0  0  0
    3.6348   -9.1203   28.9113 C   0  0  0  0  0  0  0  0  0  0  0  0
    6.2869   -8.4593   29.1886 C   0  0  0  0  0  0  0  0  0  0  0  0
    0.8502  -10.4176   16.3357 N   0  0  0  0  0  0  0  0  0  0  0  0
    2.2872   -7.0664   15.5164 C   0  0  0  0  0  0  0  0  0  0  0  0
    1.6841  -11.0288   18.1187 C   0  0  0  0  0  0  0  0  0  0  0  0
    6.0833   -9.5516   29.9574 C   0  0  0  0  0  0  0  0  0  0  0  0
    1.7935   -7.5520   28.2242 C   0  0  0  0  0  0  0  0  0  0  0  0
    2.0435   -9.1915   16.4639 C   0  0  0  0  0  0  0  0  0  0  0  0
    3.8748   -9.9054   29.5129 C   0  0  0  0  0  0  0  0  0  0  0  0
  1  8  1  0
  1 22  1  0
  2 17  1  0
  2 19  1  0
  3 21  4  0
  4 17  1  0
  4 26  1  0
  7 15  1  0
  9 20  4  0
 10 12  4  0
 10 27  4  0
 11 12  4  0
 11 23  4  0
 13 23  4  0
 13 27  4  0
 15 24  1  0
 16 18  1  0
 16 25  4  0
 16 28  4  0
 20 28  4  0
 21 25  4  0
 22 27  1  0
M  END
$$$$

 Created by Python create_sdf_string function

 28 79  0  0  0  0  0  0  0  0999 V2000
    0.8936  -10.9921   15.3670 S   0  0  0  0  0  0  0  0  0  0  0  0
    4.3757   -5.7151   24.2143 C   0  0  0  0  0  0  0  0  0  0  0  0
    5.2737   -9.0372   28.6302 C   0  0  0  0  0  0  0  0  0  0  0  0
    2.4268   -8.9451   25.9083 O   0  0  0  0  0  0  0  0  0  0  0  0
    1.7528  -11.2874   28.8785 N   0  0  0  0  0  0  0  0  0  0  0  0
   -0.6616   -9.9813   15.8617 P   0  0  0  0  0  0  0  0  0  0  0  0
    3.9899   -7.8809   28.4743 C   0  0  0  0  0  0  0  0  0  0  0  0
    4.0061   -8.9807   17.6457 C   0  0  0  0  0  0  0  0  0  0  0  0
    3.5329   -6.7686   16.0334 C   0  0  0  0  0  0  0  0  0  0  0  0
    4.2702   -7.7380   16.3142 C   0  0  0  0  0  0  0  0  0  0  0  0
    1.6447   -8.0170   16.3287 C   0  0  0  0  0  0  0  0  0  0  0  0
    0.8251  -11.4342   17.7694 C   0  0  0  0  0  0  0  0  0  0  0  0
    2.7261   -5.7010   26.0494 P   0  0  0  0  0  0  0  0  0  0  0  0
    5.0230  -11.5255   30.6361 O   0  0  0  0  0  0  0  0  0  0  0  0
    5.1579   -8.1078   26.1427 C   0  0  0  0  0  0  0  0  0  0  0  0
    3.5467   -8.8538   28.6777 C   0  0  0  0  0  0  0  0  0  0  0  0
    6.3249   -8.5798   28.8955 C   0  0  0  0  0  0  0  0  0  0  0  0
    1.4064   -9.6609   17.3243 N   0  0  0  0  0  0  0  0  0  0  0  0
    2.3044   -6.7548   15.3225 C   0  0  0  0  0  0  0  0  0  0  0  0
    0.6306  -10.5585   18.4800 N   0  0  0  0  0  0  0  0  0  0  0  0
    6.1765   -9.9561   29.4004 C   0  0  0  0  0  0  0  0  0  0  0  0
    2.1749   -9.3148   16.2210 C   0  0  0  0  0  0  0  0  0  0  0  0
    4.2055  -10.0833   29.4223 N   0  0  0  0  0  0  0  0  0  0  0  0
    5.6411   -8.4327   29.6743 He  0  0  0  0  0  0  0  0  0  0  0  0
   -1.1465  -11.0321   15.8568 He  0  0  0  0  0  0  0  0  0  0  0  0
    2.6514   -6.7986   29.1416 He  0  0  0  0  0  0  0  0  0  0  0  0
    5.3797  -10.6880   30.2506 He  0  0  0  0  0  0  0  0  0  0  0  0
    2.7070   -8.1401   26.9195 He  0  0  0  0  0  0  0  0  0  0  0  0
  1  3  1  0
  2  4  2  0
  2  5  4  0
  2 13  1  0
  2 14  2  0
  2 15  2  0
  2 17  2  0
  2 18  3  0
  2 19  1  0
  2 22  3  0
  2 23  2  0
  3  4  3  0
  3  5  1  0
  3  6  1  0
  3  8  3  0
  3 14  4  0
  3 15  1  0
  3 16  3  0
  3 21  2  0
  3 22  3  0
  4  8  4  0
  4 10  2  0
  4 12  1  0
  4 13  3  0
  4 21  1  0
  4 22  4  0
  5 11  4  0
  5 14  2  0
  5 15  2  0
  5 19  2  0
  5 23  2  0
  6  7  1  0
  6  8  1  0
  6 10  1  0
  6 14  2  0
  6 16  1  0
  6 17  3  0
  6 19  3  0
  6 21  3  0
  7 13  2  0
  7 14  1  0
  7 20  2  0
  7 21  2  0
  7 22  1  0
  8 10  4  0
  8 13  4  0
  8 15  4  0
  8 17  3  0
  8 18  2  0
  8 22  4  0
  9 10  4  0
  9 18  3  0
  9 19  4  0
  9 20  1  0
  9 22  1  0
 10 13  2  0
 10 18  3  0
 10 22  4  0
 11 15  4  0
 11 19  4  0
 11 22  4  0
 12 15  1  0
 12 17  3  0
 12 18  2  0
 13 17  4  0
 14 21  1  0
 15 16  3  0
 15 17  1  0
 15 19  4  0
 16 17  2  0
 16 20  3  0
 16 23  4  0
 17 18  1  0
 17 21  2  0
 18 19  4  0
 18 20  4  0
 18 23  1  0
 19 20  2  0
 22 23  1  0
M  END
$$$$

 Created by Python create_sdf_string function

 28 27  0  0  0  0  0  0  0  0999 V2000
    0.5080  -10.7099   15.5949 C   0  0  0  0  0  0  0  0  0  0  0  0
    4.0314   -6.9316   25.8073 C   0  0  0  0  0  0  0  0  0  0  0  0
    5.0674   -8.4569   28.3577 C   0  0  0  0  0  0  0  0  0  0  0  0
    2.6029   -8.4846   26.5261 O   0  0  0  0  0  0  0  0  0  0  0  0
    2.4574   -9.9746   28.9195 N   0  0  0  0  0  0  0  0  0  0  0  0
    6.2510   -8.3942   28.9230 C   0  0  0  0  0  0  0  0  0  0  0  0
   -0.7126  -11.0658   16.2139 C   0  0  0  0  0  0  0  0  0  0  0  0
   -0.4312  -10.6951   16.0465 C   0  0  0  0  0  0  0  0  0  0  0  0
    3.5665   -7.8373   28.1387 C   0  0  0  0  0  0  0  0  0  0  0  0
    3.5144   -8.8997   17.0632 C   0  0  0  0  0  0  0  0  0  0  0  0
    3.6651   -6.8537   15.7598 C   0  0  0  0  0  0  0  0  0  0  0  0
    4.2890   -7.7919   16.5561 C   0  0  0  0  0  0  0  0  0  0  0  0
    1.5644   -7.9684   15.9898 C   0  0  0  0  0  0  0  0  0  0  0  0
    2.8324   -6.8761   28.1728 C   0  0  0  0  0  0  0  0  0  0  0  0
    0.4534  -11.2626   17.8909 C   0  0  0  0  0  0  0  0  0  0  0  0
    5.1350  -10.4351   30.0587 C   0  0  0  0  0  0  0  0  0  0  0  0
    2.8742   -6.2074   26.5097 C   0  0  0  0  0  0  0  0  0  0  0  0
    5.1451  -11.4774   30.7935 O   0  0  0  0  0  0  0  0  0  0  0  0
    4.9482   -7.5849   26.5409 C   0  0  0  0  0  0  0  0  0  0  0  0
    3.6568   -9.1974   28.7337 C   0  0  0  0  0  0  0  0  0  0  0  0
    6.5373   -8.3440   28.8867 C   0  0  0  0  0  0  0  0  0  0  0  0
    1.3647  -10.0576   17.0030 C   0  0  0  0  0  0  0  0  0  0  0  0
    2.3161   -6.8326   15.4813 C   0  0  0  0  0  0  0  0  0  0  0  0
    1.0087  -10.5106   17.8609 C   0  0  0  0  0  0  0  0  0  0  0  0
    6.1650   -9.6971   29.8573 C   0  0  0  0  0  0  0  0  0  0  0  0
    2.8091   -7.8353   27.0735 C   0  0  0  0  0  0  0  0  0  0  0  0
    2.1761   -8.9367   16.6679 C   0  0  0  0  0  0  0  0  0  0  0  0
    3.9917  -10.1494   29.4826 N   0  0  0  0  0  0  0  0  0  0  0  0
  1  8  4  0
  1 22  4  0
  2 17  1  0
  2 19  1  0
  3  6  4  0
  3 19  1  0
  3 20  4  0
  4 26  1  0
  5 20  1  0
  6 21  4  0
  7  8  4  0
  9 14  1  0
  9 26  1  0
 10 12  4  0
 10 27  4  0
 11 12  4  0
 11 23  4  0
 13 23  4  0
 13 27  4  0
 14 17  1  0
 15 24  4  0
 16 18  2  0
 16 25  4  0
 16 28  4  0
 20 28  4  0
 22 24  4  0
 22 27  1  0
M  END
$$$$

 Created by Python create_sdf_string function

 28 63  0  0  0  0  0  0  0  0999 V2000
    0.4561  -10.9123   15.6336 C   0  0  0  0  0  0  0  0  0  0  0  0
    3.9676   -9.7881   26.8624 C   0  0  0  0  0  0  0  0  0  0  0  0
    2.5932   -8.0318   27.2903 N   0  0  0  0  0  0  0  0  0  0  0  0
    3.2421  -10.9573   27.9470 O   0  0  0  0  0  0  0  0  0  0  0  0
    6.4515   -7.6753   28.1341 N   0  0  0  0  0  0  0  0  0  0  0  0
   -0.1857  -10.3120   14.8336 S   0  0  0  0  0  0  0  0  0  0  0  0
    3.7835   -7.9692   27.9874 C   0  0  0  0  0  0  0  0  0  0  0  0
    3.5300   -8.8745   17.0015 C   0  0  0  0  0  0  0  0  0  0  0  0
    3.3835   -6.8212   15.2860 C   0  0  0  0  0  0  0  0  0  0  0  0
    1.6309   -7.8530   16.5631 C   0  0  0  0  0  0  0  0  0  0  0  0
    2.1203   -7.2374   27.4797 Cl  0  0  0  0  0  0  0  0  0  0  0  0
    0.8249  -11.7203   18.0725 F   0  0  0  0  0  0  0  0  0  0  0  0
    2.7410   -6.5112   26.3655 C   0  0  0  0  0  0  0  0  0  0  0  0
    5.4445  -11.4676   30.6811 O   0  0  0  0  0  0  0  0  0  0  0  0
    3.4826   -7.9192   26.5327 P   0  0  0  0  0  0  0  0  0  0  0  0
    3.4784   -9.0128   29.8083 N   0  0  0  0  0  0  0  0  0  0  0  0
    6.5310   -8.1866   28.9116 C   0  0  0  0  0  0  0  0  0  0  0  0
    1.5956  -12.2598   18.2222 C   0  0  0  0  0  0  0  0  0  0  0  0
    2.0336   -7.2064   15.3911 C   0  0  0  0  0  0  0  0  0  0  0  0
    2.3044   -8.8458   16.7797 C   0  0  0  0  0  0  0  0  0  0  0  0
    4.0009   -7.3954   24.6083 He  0  0  0  0  0  0  0  0  0  0  0  0
   -0.1361  -11.0154   17.3743 He  0  0  0  0  0  0  0  0  0  0  0  0
    3.8641   -7.2756   16.7112 He  0  0  0  0  0  0  0  0  0  0  0  0
    4.9554  -10.0895   29.7417 He  0  0  0  0  0  0  0  0  0  0  0  0
    0.2536  -10.3095   17.4065 He  0  0  0  0  0  0  0  0  0  0  0  0
    6.8000   -9.5807   29.8258 He  0  0  0  0  0  0  0  0  0  0  0  0
    2.7610   -7.0944   26.1467 He  0  0  0  0  0  0  0  0  0  0  0  0
    3.8183  -10.4050   28.8768 He  0  0  0  0  0  0  0  0  0  0  0  0
  1  2  3  0
  1  3  3  0
  1  5  1  0
  2  4  2  0
  2  5  3  0
  2  6  4  0
  2  7  2  0
  2 14  1  0
  2 15  1  0
  2 16  4  0
  3 12  1  0
  3 15  1  0
  3 17  3  0
  4 11  1  0
  4 12  1  0
  4 13  2  0
  4 15  2  0
  4 16  2  0
  4 18  1  0
  4 19  2  0
  4 20  3  0
  5  6  4  0
  5 10  1  0
  5 11  3  0
  5 14  3  0
  5 18  3  0
  5 19  2  0
  6  8  1  0
  6 10  2  0
  6 14  3  0
  6 17  2  0
  6 18  1  0
  6 19  4  0
  6 20  3  0
  7  9  4  0
  8  9  4  0
  8 13  2  0
  8 20  4  0
  9 12  2  0
  9 13  1  0
  9 15  3  0
  9 17  4  0
  9 19  4  0
 10 11  4  0
 10 15  1  0
 10 18  4  0
 10 19  4  0
 11 12  3  0
 11 14  1  0
 11 18  1  0
 11 20  1  0
 12 13  4  0
 12 15  3  0
 13 16  4  0
 13 17  2  0
 13 18  3  0
 13 19  2  0
 13 20  1  0
 14 17  2  0
 15 16  4  0
 15 17  4  0
 17 20  3  0
 18 19  4  0
M  END
$$$$

 Created by Python create_sdf_string function

 28 23  0  0  0  0  0  0  0  0999 V2000
    0.1591  -10.8234   15.9419 C   0  0  0  0  0  0  0  0  0  0  0  0
    4.2034   -7.2756   25.6446 C   0  0  0  0  0  0  0  0  0  0  0  0
    3.9283   -9.0613   27.8211 C   0  0  0  0  0  0  0  0  0  0  0  0
    2.6525   -7.9086   27.5151 C   0  0  0  0  0  0  0  0  0  0  0  0
    3.0970  -10.4523   28.4829 O   0  0  0  0  0  0  0  0  0  0  0  0
    6.2243   -8.0510   28.1698 C   0  0  0  0  0  0  0  0  0  0  0  0
   -0.1902  -10.5174   15.7909 C   0  0  0  0  0  0  0  0  0  0  0  0
    0.0183  -11.4807   17.4129 C   0  0  0  0  0  0  0  0  0  0  0  0
    4.2808   -8.1089   27.9855 C   0  0  0  0  0  0  0  0  0  0  0  0
    3.3966   -8.7561   17.1227 C   0  0  0  0  0  0  0  0  0  0  0  0
    3.3377   -6.9056   15.6999 C   0  0  0  0  0  0  0  0  0  0  0  0
    4.0242   -7.6941   16.5449 C   0  0  0  0  0  0  0  0  0  0  0  0
    1.3581   -8.2300   16.1119 C   0  0  0  0  0  0  0  0  0  0  0  0
    2.0232   -7.2246   27.7609 C   0  0  0  0  0  0  0  0  0  0  0  0
    0.7842  -11.5703   18.2368 C   0  0  0  0  0  0  0  0  0  0  0  0
    5.2836  -10.0024   29.8205 C   0  0  0  0  0  0  0  0  0  0  0  0
    2.6514   -6.3601   26.5704 C   0  0  0  0  0  0  0  0  0  0  0  0
    5.4890  -10.9351   30.7217 O   0  0  0  0  0  0  0  0  0  0  0  0
    3.7488   -7.7600   26.7346 C   0  0  0  0  0  0  0  0  0  0  0  0
    3.4907   -9.4236   29.4555 N   0  0  0  0  0  0  0  0  0  0  0  0
    6.5178   -8.3010   28.6759 C   0  0  0  0  0  0  0  0  0  0  0  0
    1.0569  -11.1672   18.1938 C   0  0  0  0  0  0  0  0  0  0  0  0
    1.9990   -7.0726   15.4851 C   0  0  0  0  0  0  0  0  0  0  0  0
    1.1121  -10.2600   17.0976 C   0  0  0  0  0  0  0  0  0  0  0  0
    6.4065   -9.4100   29.7215 C   0  0  0  0  0  0  0  0  0  0  0  0
    2.6035   -6.3991   26.4148 C   0  0  0  0  0  0  0  0  0  0  0  0
    1.9841   -9.0049   16.8148 C   0  0  0  0  0  0  0  0  0  0  0  0
    4.1606  -10.2192   29.1074 C   0  0  0  0  0  0  0  0  0  0  0  0
  1  7  4  0
  1 24  4  0
  2 19  1  0
  3  9  4  0
  4 14  1  0
  4 19  1  0
  5 28  1  0
  6 21  4  0
  8 15  4  0
 10 12  4  0
 10 27  4  0
 11 12  4  0
 11 23  4  0
 13 23  4  0
 13 27  4  0
 15 22  4  0
 16 18  2  0
 16 25  4  0
 16 28  4  0
 17 26  1  0
 21 25  4  0
 22 24  4  0
 24 27  1  0
M  END
$$$$

 Created by Python create_sdf_string function

 28 55  0  0  0  0  0  0  0  0999 V2000
    0.3454  -10.9833   16.1099 C   0  0  0  0  0  0  0  0  0  0  0  0
    2.8959   -9.9529   26.8380 F   0  0  0  0  0  0  0  0  0  0  0  0
    5.2870   -8.3308   28.4267 C   0  0  0  0  0  0  0  0  0  0  0  0
    0.0632   -9.2157   15.3603 O   0  0  0  0  0  0  0  0  0  0  0  0
    0.4254  -11.7408   16.6609 C   0  0  0  0  0  0  0  0  0  0  0  0
    3.1804   -8.8361   17.2638 C   0  0  0  0  0  0  0  0  0  0  0  0
    4.3170   -7.9538   16.6987 C   0  0  0  0  0  0  0  0  0  0  0  0
    1.2258   -7.8491   16.0577 C   0  0  0  0  0  0  0  0  0  0  0  0
    0.4723  -11.6530   18.2677 C   0  0  0  0  0  0  0  0  0  0  0  0
    5.7961   -9.8097   29.5835 F   0  0  0  0  0  0  0  0  0  0  0  0
    4.9917  -10.7230   30.6550 O   0  0  0  0  0  0  0  0  0  0  0  0
    3.0248   -7.1236   25.8927 P   0  0  0  0  0  0  0  0  0  0  0  0
    3.2554   -9.2846   29.5028 N   0  0  0  0  0  0  0  0  0  0  0  0
    6.3942   -8.2951   29.1386 P   0  0  0  0  0  0  0  0  0  0  0  0
    2.0496   -6.6259   15.0093 O   0  0  0  0  0  0  0  0  0  0  0  0
    6.4912   -9.3412   29.0245 C   0  0  0  0  0  0  0  0  0  0  0  0
    2.4477   -5.5226   26.8576 C   0  0  0  0  0  0  0  0  0  0  0  0
    2.3732   -8.8276   17.2558 C   0  0  0  0  0  0  0  0  0  0  0  0
    3.8018  -10.6333   28.7481 C   0  0  0  0  0  0  0  0  0  0  0  0
    4.7038   -6.3964   25.4447 He  0  0  0  0  0  0  0  0  0  0  0  0
    3.5728   -7.3861   29.0077 He  0  0  0  0  0  0  0  0  0  0  0  0
    4.3928  -10.7086   30.2822 He  0  0  0  0  0  0  0  0  0  0  0  0
    3.7692   -8.7268   28.0219 He  0  0  0  0  0  0  0  0  0  0  0  0
    2.7737   -6.7389   15.8649 He  0  0  0  0  0  0  0  0  0  0  0  0
    2.6445   -7.8511   27.5364 He  0  0  0  0  0  0  0  0  0  0  0  0
    0.4682   -5.9385   26.5960 He  0  0  0  0  0  0  0  0  0  0  0  0
    1.3788  -10.6553   17.2405 He  0  0  0  0  0  0  0  0  0  0  0  0
    2.5543  -11.1980   18.5916 He  0  0  0  0  0  0  0  0  0  0  0  0
  1  2  1  0
  1  3  2  0
  1  5  3  0
  1 12  4  0
  1 18  1  0
  2  3  2  0
  2  4  1  0
  2  6  2  0
  2 10  2  0
  2 15  3  0
  2 17  3  0
  2 18  4  0
  3  4  1  0
  3  6  2  0
  3  7  3  0
  3 10  2  0
  4 10  4  0
  4 12  1  0
  4 13  3  0
  4 14  3  0
  4 19  3  0
  5  6  4  0
  5  7  2  0
  5  8  4  0
  5  9  4  0
  5 10  4  0
  5 11  1  0
  5 13  1  0
  5 15  2  0
  5 16  1  0
  6  7  4  0
  6 12  2  0
  6 18  4  0
  7 16  4  0
  7 17  3  0
  7 18  4  0
  8 10  2  0
  8 11  3  0
  8 12  1  0
  8 15  4  0
  8 18  4  0
  9 12  3  0
  9 13  3  0
  9 17  4  0
 10 16  4  0
 10 19  4  0
 11 18  4  0
 12 13  4  0
 12 16  4  0
 12 17  3  0
 12 19  3  0
 14 16  4  0
 14 19  3  0
 15 17  3  0
 17 18  2  0
M  END
$$$$

 Created by Python create_sdf_string function

 28 24  0  0  0  0  0  0  0  0999 V2000
    0.1437  -10.7704   16.2249 C   0  0  0  0  0  0  0  0  0  0  0  0
    4.1647   -6.8498   26.2592 C   0  0  0  0  0  0  0  0  0  0  0  0
    2.7556   -8.7083   27.2846 C   0  0  0  0  0  0  0  0  0  0  0  0
    3.0411   -7.0052   28.3326 C   0  0  0  0  0  0  0  0  0  0  0  0
    4.2575  -10.6871   29.8742 C   0  0  0  0  0  0  0  0  0  0  0  0
    5.3153   -8.3100   28.2182 C   0  0  0  0  0  0  0  0  0  0  0  0
   -0.1284  -10.3163   15.6925 C   0  0  0  0  0  0  0  0  0  0  0  0
   -0.2154  -11.7535   17.0828 C   0  0  0  0  0  0  0  0  0  0  0  0
    4.0396   -8.4820   28.1557 C   0  0  0  0  0  0  0  0  0  0  0  0
    3.2715   -8.8704   17.1450 C   0  0  0  0  0  0  0  0  0  0  0  0
    3.3704   -6.8771   15.8719 C   0  0  0  0  0  0  0  0  0  0  0  0
    4.0327   -7.7465   16.6833 C   0  0  0  0  0  0  0  0  0  0  0  0
    1.3926   -8.1056   15.9382 C   0  0  0  0  0  0  0  0  0  0  0  0
    2.4018   -7.5082   27.6718 C   0  0  0  0  0  0  0  0  0  0  0  0
    0.5194  -11.8766   18.1874 C   0  0  0  0  0  0  0  0  0  0  0  0
    5.6835   -9.8461   29.6239 N   0  0  0  0  0  0  0  0  0  0  0  0
    1.2087   -5.9638   26.7729 C   0  0  0  0  0  0  0  0  0  0  0  0
    5.1866  -11.0148   30.6549 O   0  0  0  0  0  0  0  0  0  0  0  0
    3.3424   -7.0244   26.3050 C   0  0  0  0  0  0  0  0  0  0  0  0
    3.0849   -9.5373   29.1117 N   0  0  0  0  0  0  0  0  0  0  0  0
    6.7169   -8.4581   28.7195 C   0  0  0  0  0  0  0  0  0  0  0  0
    1.3131  -10.2111   17.1492 C   0  0  0  0  0  0  0  0  0  0  0  0
    2.1269   -6.8920   15.5720 C   0  0  0  0  0  0  0  0  0  0  0  0
    1.4831  -10.9505   18.2287 C   0  0  0  0  0  0  0  0  0  0  0  0
    6.4362   -9.0984   29.3272 C   0  0  0  0  0  0  0  0  0  0  0  0
    2.3992   -5.9931   26.7648 C   0  0  0  0  0  0  0  0  0  0  0  0
    1.9987   -9.0731   16.7411 C   0  0  0  0  0  0  0  0  0  0  0  0
    4.0797  -10.4746   29.2663 C   0  0  0  0  0  0  0  0  0  0  0  0
  1  7  4  0
  1  8  4  0
  1 22  4  0
  2 19  1  0
  3 14  1  0
  4 14  1  0
  5 28  2  0
  6  9  4  0
  6 21  4  0
  8 15  4  0
 10 12  4  0
 10 27  4  0
 11 12  4  0
 11 23  4  0
 13 23  4  0
 13 27  4  0
 15 24  4  0
 16 25  4  0
 16 28  4  0
 17 26  1  0
 19 26  1  0
 21 25  4  0
 22 24  4  0
 22 27  1  0
M  END
$$$$

 Created by Python create_sdf_string function

 28 91  0  0  0  0  0  0  0  0999 V2000
   -0.0352  -10.5847   17.0144 C   0  0  0  0  0  0  0  0  0  0  0  0
    2.4350   -6.8458   28.7734 O   0  0  0  0  0  0  0  0  0  0  0  0
    3.2737  -12.0520   30.1315 O   0  0  0  0  0  0  0  0  0  0  0  0
    0.7525  -11.9865   15.0893 N   0  0  0  0  0  0  0  0  0  0  0  0
   -0.5446  -11.6375   16.5566 C   0  0  0  0  0  0  0  0  0  0  0  0
    4.0351   -9.1219   28.2815 C   0  0  0  0  0  0  0  0  0  0  0  0
    2.8195   -8.8830   17.2025 C   0  0  0  0  0  0  0  0  0  0  0  0
    3.6763   -6.9041   15.6710 C   0  0  0  0  0  0  0  0  0  0  0  0
    4.0316   -7.2733   16.3307 C   0  0  0  0  0  0  0  0  0  0  0  0
    1.9627   -7.6304   16.1546 C   0  0  0  0  0  0  0  0  0  0  0  0
    2.6186   -9.9489   25.7316 S   0  0  0  0  0  0  0  0  0  0  0  0
    0.1606  -11.4620   17.7441 F   0  0  0  0  0  0  0  0  0  0  0  0
    5.6556   -9.8272   29.7607 P   0  0  0  0  0  0  0  0  0  0  0  0
    0.9561   -5.9040   26.5983 C   0  0  0  0  0  0  0  0  0  0  0  0
    4.9124  -11.1611   30.3605 S   0  0  0  0  0  0  0  0  0  0  0  0
    2.4116   -6.3601   25.8701 O   0  0  0  0  0  0  0  0  0  0  0  0
    2.9178   -9.5892   28.8353 N   0  0  0  0  0  0  0  0  0  0  0  0
    6.6221   -8.0014   28.4753 C   0  0  0  0  0  0  0  0  0  0  0  0
    1.3294  -11.5492   17.0245 F   0  0  0  0  0  0  0  0  0  0  0  0
    1.6346   -7.2719   15.3346 B   0  0  0  0  0  0  0  0  0  0  0  0
    6.3947   -9.6000   29.5727 O   0  0  0  0  0  0  0  0  0  0  0  0
    0.7846   -5.2934   25.3400 C   0  0  0  0  0  0  0  0  0  0  0  0
    1.7250   -9.0007   16.8271 O   0  0  0  0  0  0  0  0  0  0  0  0
    3.8025  -10.7235   29.1088 C   0  0  0  0  0  0  0  0  0  0  0  0
    4.7964   -8.0510   25.1891 He  0  0  0  0  0  0  0  0  0  0  0  0
    3.2947   -9.8304   27.9503 He  0  0  0  0  0  0  0  0  0  0  0  0
    5.1001   -8.9155   28.6225 He  0  0  0  0  0  0  0  0  0  0  0  0
    2.8125  -10.3473   16.8549 He  0  0  0  0  0  0  0  0  0  0  0  0
  1  2  3  0
  1  6  3  0
  1 10  2  0
  1 11  2  0
  1 14  2  0
  1 15  3  0
  1 16  2  0
  1 22  3  0
  2  3  4  0
  2  8  1  0
  2 10  4  0
  2 11  3  0
  2 12  3  0
  2 16  3  0
  2 17  2  0
  2 23  3  0
  2 24  1  0
  3  4  1  0
  3  5  4  0
  3 12  3  0
  3 13  2  0
  3 15  3  0
  3 18  4  0
  3 20  3  0
  3 22  4  0
  4  7  4  0
  4 11  2  0
  4 15  4  0
  4 19  3  0
  4 20  1  0
  5  8  1  0
  5 10  1  0
  5 18  1  0
  5 21  4  0
  6 11  1  0
  6 15  2  0
  6 20  3  0
  6 21  1  0
  7 11  3  0
  7 14  3  0
  8  9  4  0
  8 10  4  0
  8 15  2  0
  8 16  2  0
  8 17  3  0
  8 20  4  0
  9 10  1  0
  9 17  3  0
  9 20  4  0
  9 21  4  0
 10 12  2  0
 10 14  1  0
 10 16  4  0
 10 20  4  0
 10 22  3  0
 10 23  3  0
 10 24  3  0
 11 14  3  0
 11 17  4  0
 11 18  2  0
 11 19  4  0
 11 20  4  0
 11 22  2  0
 11 23  4  0
 12 16  1  0
 12 19  2  0
 12 21  2  0
 13 14  1  0
 13 19  4  0
 13 24  3  0
 14 15  1  0
 14 16  3  0
 14 17  4  0
 14 18  1  0
 14 21  4  0
 14 23  1  0
 15 16  2  0
 15 19  2  0
 16 19  3  0
 16 23  3  0
 16 24  4  0
 17 19  3  0
 17 23  3  0
 18 19  4  0
 18 21  4  0
 19 21  3  0
 19 24  2  0
 20 22  3  0
 21 22  1  0
 21 24  4  0
 22 23  2  0
M  END
$$$$

 Created by Python create_sdf_string function

 28 18  0  0  0  0  0  0  0  0999 V2000
   -0.0091  -10.6095   16.7193 C   0  0  0  0  0  0  0  0  0  0  0  0
    4.3188   -7.3224   26.2964 C   0  0  0  0  0  0  0  0  0  0  0  0
    3.4823   -9.7751   28.4236 C   0  0  0  0  0  0  0  0  0  0  0  0
    2.0048   -6.8092   28.2499 O   0  0  0  0  0  0  0  0  0  0  0  0
    3.5566  -11.7763   29.9466 O   0  0  0  0  0  0  0  0  0  0  0  0
    5.3527   -8.6881   28.2477 C   0  0  0  0  0  0  0  0  0  0  0  0
    0.7346  -11.5703   15.7395 N   0  0  0  0  0  0  0  0  0  0  0  0
   -0.3428  -11.4968   16.4381 C   0  0  0  0  0  0  0  0  0  0  0  0
    3.9066   -8.7222   27.6730 C   0  0  0  0  0  0  0  0  0  0  0  0
    3.3127   -8.9375   16.8539 C   0  0  0  0  0  0  0  0  0  0  0  0
    3.3546   -6.9357   15.8024 C   0  0  0  0  0  0  0  0  0  0  0  0
    3.9971   -7.7475   16.4188 C   0  0  0  0  0  0  0  0  0  0  0  0
    1.4968   -7.9934   16.1736 C   0  0  0  0  0  0  0  0  0  0  0  0
    2.6419   -8.7661   26.9046 C   0  0  0  0  0  0  0  0  0  0  0  0
    0.1349  -11.4828   17.8340 C   0  0  0  0  0  0  0  0  0  0  0  0
    5.4132   -9.7583   29.6620 C   0  0  0  0  0  0  0  0  0  0  0  0
    1.7541   -6.3347   27.0132 C   0  0  0  0  0  0  0  0  0  0  0  0
    4.8799  -10.9815   30.4201 O   0  0  0  0  0  0  0  0  0  0  0  0
    3.0218   -6.6980   26.2348 N   0  0  0  0  0  0  0  0  0  0  0  0
    2.9032   -9.5422   28.4204 N   0  0  0  0  0  0  0  0  0  0  0  0
    6.1591   -8.0489   27.8808 C   0  0  0  0  0  0  0  0  0  0  0  0
    1.1190  -11.1527   17.2499 C   0  0  0  0  0  0  0  0  0  0  0  0
    2.0043   -6.9890   15.8183 C   0  0  0  0  0  0  0  0  0  0  0  0
    1.8077  -10.3739   17.0929 C   0  0  0  0  0  0  0  0  0  0  0  0
    6.2738   -9.4594   29.7320 O   0  0  0  0  0  0  0  0  0  0  0  0
    1.4345   -5.6596   26.4810 C   0  0  0  0  0  0  0  0  0  0  0  0
    2.0278   -9.1001   16.6930 C   0  0  0  0  0  0  0  0  0  0  0  0
    3.8993  -10.5622   29.4243 C   0  0  0  0  0  0  0  0  0  0  0  0
  1  8  4  0
  2 19  1  0
  3 28  4  0
  4 17  1  0
  6  9  4  0
  6 21  1  0
  9 14  1  0
 10 12  4  0
 10 27  4  0
 11 12  4  0
 11 23  4  0
 13 23  4  0
 13 27  4  0
 16 25  4  0
 17 19  1  0
 17 26  1  0
 22 24  4  0
 24 27  1  0
M  END
$$$$

 Created by Python create_sdf_string function

 28 87  0  0  0  0  0  0  0  0999 V2000
    0.5334  -10.6482   16.7280 C   0  0  0  0  0  0  0  0  0  0  0  0
    4.8297   -8.6787   24.4561 Br  0  0  0  0  0  0  0  0  0  0  0  0
    2.5786   -9.9484   28.3614 N   0  0  0  0  0  0  0  0  0  0  0  0
    3.1252   -6.0849   28.6411 O   0  0  0  0  0  0  0  0  0  0  0  0
    4.9220   -9.3403   28.0473 C   0  0  0  0  0  0  0  0  0  0  0  0
    2.1846  -11.8593   15.3865 B   0  0  0  0  0  0  0  0  0  0  0  0
    3.9108   -8.1260   27.7248 C   0  0  0  0  0  0  0  0  0  0  0  0
    3.7684   -9.0248   16.7276 F   0  0  0  0  0  0  0  0  0  0  0  0
    3.2771   -6.7310   14.9541 P   0  0  0  0  0  0  0  0  0  0  0  0
    4.5604   -7.6689   16.6645 C   0  0  0  0  0  0  0  0  0  0  0  0
    1.5107   -8.1047   16.5198 C   0  0  0  0  0  0  0  0  0  0  0  0
    2.7227   -9.9766   27.0850 N   0  0  0  0  0  0  0  0  0  0  0  0
    0.0775  -11.4699   18.1445 C   0  0  0  0  0  0  0  0  0  0  0  0
    2.2062   -4.4460   27.4630 O   0  0  0  0  0  0  0  0  0  0  0  0
    4.9217  -11.3025   30.2696 O   0  0  0  0  0  0  0  0  0  0  0  0
    3.4565   -6.7585   27.9279 Cl  0  0  0  0  0  0  0  0  0  0  0  0
    3.2185   -9.2474   28.4325 N   0  0  0  0  0  0  0  0  0  0  0  0
    5.9918   -7.7139   27.8416 O   0  0  0  0  0  0  0  0  0  0  0  0
    1.0761  -11.0562   16.9395 S   0  0  0  0  0  0  0  0  0  0  0  0
    2.0340   -6.6932   15.5193 C   0  0  0  0  0  0  0  0  0  0  0  0
    2.1420   -9.2111   18.0161 C   0  0  0  0  0  0  0  0  0  0  0  0
    6.8179   -9.7305   29.5752 O   0  0  0  0  0  0  0  0  0  0  0  0
    1.9697   -9.2290   17.1598 C   0  0  0  0  0  0  0  0  0  0  0  0
    3.7446  -11.1171   29.6641 C   0  0  0  0  0  0  0  0  0  0  0  0
    2.5863  -12.1316   30.6358 He  0  0  0  0  0  0  0  0  0  0  0  0
    0.6878  -11.4871   16.4597 He  0  0  0  0  0  0  0  0  0  0  0  0
    5.1681  -10.3145   29.7854 He  0  0  0  0  0  0  0  0  0  0  0  0
    1.1032   -5.4654   27.0184 He  0  0  0  0  0  0  0  0  0  0  0  0
  1  2  2  0
  1  3  4  0
  1  6  4  0
  1  8  1  0
  1 11  2  0
  1 14  1  0
  1 21  1  0
  2  3  4  0
  2  4  4  0
  2  8  4  0
  2 12  1  0
  2 14  2  0
  2 15  1  0
  2 17  1  0
  2 21  2  0
  2 23  2  0
  3  6  4  0
  3  8  2  0
  3 10  2  0
  3 12  3  0
  3 14  4  0
  3 18  1  0
  3 19  4  0
  4  6  2  0
  4  9  2  0
  4 11  1  0
  4 13  4  0
  4 14  2  0
  4 15  3  0
  4 23  3  0
  5  6  3  0
  5  9  4  0
  5 10  4  0
  5 12  1  0
  5 13  2  0
  5 15  1  0
  5 16  4  0
  5 19  1  0
  5 24  3  0
  6  7  1  0
  6  8  3  0
  6 10  3  0
  6 11  3  0
  6 13  4  0
  6 17  3  0
  6 22  2  0
  6 23  2  0
  7 12  3  0
  7 23  4  0
  8 10  4  0
  8 14  1  0
  8 16  4  0
  8 21  1  0
  8 23  4  0
  9 10  4  0
  9 11  1  0
  9 18  3  0
  9 20  4  0
 10 21  4  0
 11 14  3  0
 11 20  4  0
 11 23  4  0
 12 13  4  0
 12 14  1  0
 12 15  3  0
 12 17  2  0
 12 22  3  0
 13 22  2  0
 14 16  3  0
 14 17  1  0
 14 18  4  0
 14 19  2  0
 14 20  4  0
 14 21  1  0
 15 16  2  0
 15 18  3  0
 15 19  1  0
 15 21  3  0
 16 20  4  0
 16 21  4  0
 16 23  1  0
 17 19  3  0
 17 22  3  0
 18 23  4  0
 19 21  3  0
 19 22  2  0
 20 24  1  0
M  END
$$$$

 Created by Python create_sdf_string function

 28 17  0  0  0  0  0  0  0  0999 V2000
    0.3223  -10.5502   16.9487 C   0  0  0  0  0  0  0  0  0  0  0  0
    4.4019   -7.5675   25.7881 O   0  0  0  0  0  0  0  0  0  0  0  0
    2.9408   -9.7464   28.3825 C   0  0  0  0  0  0  0  0  0  0  0  0
    3.1224   -6.1102   28.2919 O   0  0  0  0  0  0  0  0  0  0  0  0
    2.7539  -11.4767   30.1299 C   0  0  0  0  0  0  0  0  0  0  0  0
    4.7883   -8.8382   28.2990 C   0  0  0  0  0  0  0  0  0  0  0  0
    1.7856  -11.5967   16.2332 C   0  0  0  0  0  0  0  0  0  0  0  0
    0.8994  -11.3281   16.7350 C   0  0  0  0  0  0  0  0  0  0  0  0
    3.8007   -7.7276   27.3196 C   0  0  0  0  0  0  0  0  0  0  0  0
    3.5881   -8.8337   16.8815 C   0  0  0  0  0  0  0  0  0  0  0  0
    3.5148   -6.8627   15.7624 C   0  0  0  0  0  0  0  0  0  0  0  0
    4.2732   -7.7081   16.4555 C   0  0  0  0  0  0  0  0  0  0  0  0
    1.4993   -7.9988   16.1772 C   0  0  0  0  0  0  0  0  0  0  0  0
    3.0247   -9.0400   27.4941 C   0  0  0  0  0  0  0  0  0  0  0  0
    0.0816  -11.4739   18.0748 C   0  0  0  0  0  0  0  0  0  0  0  0
    5.1541   -9.8619   29.6185 C   0  0  0  0  0  0  0  0  0  0  0  0
    2.2459   -5.3098   27.2464 O   0  0  0  0  0  0  0  0  0  0  0  0
    4.9476  -11.0183   30.2408 O   0  0  0  0  0  0  0  0  0  0  0  0
    3.1867   -6.7912   27.4179 C   0  0  0  0  0  0  0  0  0  0  0  0
    3.0641   -9.5522   28.3703 C   0  0  0  0  0  0  0  0  0  0  0  0
    5.6448   -7.9092   27.7175 O   0  0  0  0  0  0  0  0  0  0  0  0
    1.1305  -11.5203   17.2867 C   0  0  0  0  0  0  0  0  0  0  0  0
    2.1777   -6.8510   15.7106 C   0  0  0  0  0  0  0  0  0  0  0  0
    1.5790  -10.1251   17.2152 C   0  0  0  0  0  0  0  0  0  0  0  0
    6.4181   -9.5198   29.7371 O   0  0  0  0  0  0  0  0  0  0  0  0
    1.7933   -5.6526   27.0089 C   0  0  0  0  0  0  0  0  0  0  0  0
    2.1916   -8.9978   16.7572 C   0  0  0  0  0  0  0  0  0  0  0  0
    3.4947  -10.9370   29.7924 C   0  0  0  0  0  0  0  0  0  0  0  0
  3 20  1  0
  4 19  1  0
  5 28  1  0
  6 16  1  0
  6 21  1  0
  9 19  1  0
 10 12  4  0
 10 27  4  0
 11 12  4  0
 11 23  4  0
 13 23  4  0
 13 27  4  0
 15 22  4  0
 16 18  1  0
 16 25  1  0
 17 26  1  0
 24 27  1  0
M  END
$$$$

 Created by Python create_sdf_string function

 28 59  0  0  0  0  0  0  0  0999 V2000
    4.9595   -7.7668   25.2117 O   0  0  0  0  0  0  0  0  0  0  0  0
    3.6667   -5.2869   28.4155 B   0  0  0  0  0  0  0  0  0  0  0  0
    2.9203  -10.7953   30.4444 N   0  0  0  0  0  0  0  0  0  0  0  0
    1.1798  -11.2201   17.3062 P   0  0  0  0  0  0  0  0  0  0  0  0
    4.0796   -7.4294   27.2868 C   0  0  0  0  0  0  0  0  0  0  0  0
    3.9504   -8.8231   16.9218 C   0  0  0  0  0  0  0  0  0  0  0  0
    3.2801   -6.5809   15.5350 C   0  0  0  0  0  0  0  0  0  0  0  0
    4.2677   -7.4426   16.5526 C   0  0  0  0  0  0  0  0  0  0  0  0
    1.7092   -8.2853   16.3764 C   0  0  0  0  0  0  0  0  0  0  0  0
    2.8992   -9.2411   28.7353 C   0  0  0  0  0  0  0  0  0  0  0  0
    0.1679  -11.4607   18.3111 C   0  0  0  0  0  0  0  0  0  0  0  0
    4.5685  -10.0719   29.1139 C   0  0  0  0  0  0  0  0  0  0  0  0
    2.7899   -4.4836   26.1734 I   0  0  0  0  0  0  0  0  0  0  0  0
    5.2075  -11.0826   29.9469 O   0  0  0  0  0  0  0  0  0  0  0  0
    3.2143   -9.0552   28.8295 F   0  0  0  0  0  0  0  0  0  0  0  0
    2.0406   -6.4147   16.0529 C   0  0  0  0  0  0  0  0  0  0  0  0
    2.0253   -9.6523   17.5902 C   0  0  0  0  0  0  0  0  0  0  0  0
    6.2347  -10.0007   29.3747 O   0  0  0  0  0  0  0  0  0  0  0  0
    2.1127   -4.6361   27.7278 F   0  0  0  0  0  0  0  0  0  0  0  0
    2.4584   -9.3252   16.8712 C   0  0  0  0  0  0  0  0  0  0  0  0
    0.5382  -10.4955   17.8209 He  0  0  0  0  0  0  0  0  0  0  0  0
    3.8599  -10.2836   28.8464 He  0  0  0  0  0  0  0  0  0  0  0  0
    5.1706   -8.9116   28.0483 He  0  0  0  0  0  0  0  0  0  0  0  0
    1.0242  -10.5137   16.1451 He  0  0  0  0  0  0  0  0  0  0  0  0
    3.0601   -6.2612   28.1859 He  0  0  0  0  0  0  0  0  0  0  0  0
    5.3586   -8.0225   27.8106 He  0  0  0  0  0  0  0  0  0  0  0  0
    0.1090  -12.0318   18.0602 He  0  0  0  0  0  0  0  0  0  0  0  0
    3.4940  -11.6025   30.1567 He  0  0  0  0  0  0  0  0  0  0  0  0
  1  3  1  0
  1  5  3  0
  1  6  3  0
  1  7  4  0
  1 10  4  0
  1 11  4  0
  1 12  2  0
  1 13  1  0
  1 14  3  0
  1 17  1  0
  1 20  3  0
  2  5  4  0
  2 13  1  0
  2 14  4  0
  2 15  2  0
  2 16  3  0
  2 20  2  0
  3  5  1  0
  3  6  1  0
  3 16  4  0
  3 18  1  0
  4 11  2  0
  4 12  4  0
  4 13  4  0
  4 14  1  0
  4 16  4  0
  5  7  2  0
  5 10  4  0
  6  8  4  0
  6 12  3  0
  6 13  1  0
  6 20  4  0
  7  8  4  0
  7 10  3  0
  7 16  4  0
  7 17  1  0
  7 19  2  0
  8 10  2  0
  8 13  4  0
  8 17  1  0
  9 10  1  0
  9 15  1  0
  9 16  4  0
  9 19  4  0
  9 20  4  0
 10 12  2  0
 10 13  1  0
 10 15  2  0
 10 19  3  0
 11 13  3  0
 12 14  1  0
 12 18  1  0
 13 14  1  0
 13 20  1  0
 14 17  1  0
 14 19  1  0
 15 17  1  0
 16 19  1  0
 17 19  4  0
M  END
$$$$

 Created by Python create_sdf_string function

 28 20  0  0  0  0  0  0  0  0999 V2000
    0.6425  -10.3252   17.8164 C   0  0  0  0  0  0  0  0  0  0  0  0
    4.5286   -7.1252   25.9435 O   0  0  0  0  0  0  0  0  0  0  0  0
    3.3959   -9.7870   29.0791 C   0  0  0  0  0  0  0  0  0  0  0  0
    3.2279   -5.6936   27.6148 C   0  0  0  0  0  0  0  0  0  0  0  0
    2.4752  -10.9506   30.2076 C   0  0  0  0  0  0  0  0  0  0  0  0
    4.7314   -9.0058   28.3171 C   0  0  0  0  0  0  0  0  0  0  0  0
    0.8341  -11.0698   16.9887 C   0  0  0  0  0  0  0  0  0  0  0  0
    1.1349  -11.4901   17.7522 C   0  0  0  0  0  0  0  0  0  0  0  0
    4.0951   -7.1038   27.1809 C   0  0  0  0  0  0  0  0  0  0  0  0
    3.7717   -8.7704   16.8332 C   0  0  0  0  0  0  0  0  0  0  0  0
    3.4270   -6.5868   15.8723 C   0  0  0  0  0  0  0  0  0  0  0  0
    4.2859   -7.5352   16.3644 C   0  0  0  0  0  0  0  0  0  0  0  0
    1.5556   -8.0487   16.3585 C   0  0  0  0  0  0  0  0  0  0  0  0
    2.7851   -8.4410   28.5641 C   0  0  0  0  0  0  0  0  0  0  0  0
    0.0750  -11.8307   18.2390 C   0  0  0  0  0  0  0  0  0  0  0  0
    5.1334  -10.0058   29.2839 C   0  0  0  0  0  0  0  0  0  0  0  0
    2.8188   -5.1191   26.8634 C   0  0  0  0  0  0  0  0  0  0  0  0
    5.2037  -11.1138   29.9707 O   0  0  0  0  0  0  0  0  0  0  0  0
    2.8954   -6.5404   27.9161 C   0  0  0  0  0  0  0  0  0  0  0  0
    2.9166   -9.0573   28.7685 C   0  0  0  0  0  0  0  0  0  0  0  0
    5.1609   -8.0391   27.6299 C   0  0  0  0  0  0  0  0  0  0  0  0
    0.0602  -11.8669   18.2204 C   0  0  0  0  0  0  0  0  0  0  0  0
    2.0656   -6.7617   15.8919 C   0  0  0  0  0  0  0  0  0  0  0  0
    1.8527  -10.3207   17.2277 C   0  0  0  0  0  0  0  0  0  0  0  0
    6.4332   -9.5957   29.2913 O   0  0  0  0  0  0  0  0  0  0  0  0
    2.3595   -4.9764   27.5917 O   0  0  0  0  0  0  0  0  0  0  0  0
    2.4076   -8.9906   16.7624 C   0  0  0  0  0  0  0  0  0  0  0  0
    3.2588  -11.5890   30.2595 C   0  0  0  0  0  0  0  0  0  0  0  0
  1  7  4  0
  1 24  4  0
  3 20  1  0
  4 17  1  0
  5 28  1  0
  6 16  1  0
  6 21  1  0
  9 21  1  0
 10 12  4  0
 10 27  4  0
 11 12  4  0
 11 23  4  0
 13 23  4  0
 13 27  4  0
 14 20  1  0
 15 22  4  0
 16 18  1  0
 16 25  1  0
 17 26  1  0
 24 27  1  0
M  END
$$$$

 Created by Python create_sdf_string function

 28 30  0  0  0  0  0  0  0  0999 V2000
    3.6242  -10.8161   30.7557 Cl  0  0  0  0  0  0  0  0  0  0  0  0
   -0.0303  -11.3896   16.4822 C   0  0  0  0  0  0  0  0  0  0  0  0
    4.8244   -6.9999   27.1360 C   0  0  0  0  0  0  0  0  0  0  0  0
    4.0135   -8.5055   16.5393 C   0  0  0  0  0  0  0  0  0  0  0  0
    3.0234   -6.8280   15.9605 C   0  0  0  0  0  0  0  0  0  0  0  0
    3.9252   -7.0721   15.9224 C   0  0  0  0  0  0  0  0  0  0  0  0
    5.0433  -10.0630   29.6595 C   0  0  0  0  0  0  0  0  0  0  0  0
    1.9966   -4.0473   26.3596 C   0  0  0  0  0  0  0  0  0  0  0  0
    5.5071  -10.8548   29.9557 O   0  0  0  0  0  0  0  0  0  0  0  0
    2.6587   -8.9025   29.0035 C   0  0  0  0  0  0  0  0  0  0  0  0
    4.8814   -7.9168   28.2386 B   0  0  0  0  0  0  0  0  0  0  0  0
    0.3341  -11.3703   19.8949 C   0  0  0  0  0  0  0  0  0  0  0  0
    2.2145   -6.9556   15.9255 C   0  0  0  0  0  0  0  0  0  0  0  0
    6.0436   -9.8367   29.6841 O   0  0  0  0  0  0  0  0  0  0  0  0
    2.2447   -8.9780   16.5745 C   0  0  0  0  0  0  0  0  0  0  0  0
    3.1149  -11.5666   29.7490 C   0  0  0  0  0  0  0  0  0  0  0  0
    1.0202  -10.1792   17.6030 He  0  0  0  0  0  0  0  0  0  0  0  0
    3.7233   -7.4722   26.1712 He  0  0  0  0  0  0  0  0  0  0  0  0
    5.0335   -9.9588   29.6281 He  0  0  0  0  0  0  0  0  0  0  0  0
    3.4923   -6.6492   26.7848 He  0  0  0  0  0  0  0  0  0  0  0  0
    6.2219   -9.7432   28.4334 He  0  0  0  0  0  0  0  0  0  0  0  0
    0.6302  -11.8981   17.1233 He  0  0  0  0  0  0  0  0  0  0  0  0
    1.8076   -8.2063   16.3267 He  0  0  0  0  0  0  0  0  0  0  0  0
    2.3958   -8.6422   27.8333 He  0  0  0  0  0  0  0  0  0  0  0  0
    0.6038  -12.3699   18.4443 He  0  0  0  0  0  0  0  0  0  0  0  0
    2.4578   -5.8452   27.6673 He  0  0  0  0  0  0  0  0  0  0  0  0
    1.7733  -10.2060   17.4879 He  0  0  0  0  0  0  0  0  0  0  0  0
    0.9254   -3.9391   27.4031 He  0  0  0  0  0  0  0  0  0  0  0  0
  1  2  4  0
  1  6  4  0
  1 10  1  0
  1 11  4  0
  2  3  2  0
  2  9  1  0
  2 11  4  0
  2 13  3  0
  3 11  1  0
  3 13  4  0
  4  6  4  0
  4  7  1  0
  4  8  4  0
  5  6  4  0
  5 11  1  0
  5 12  3  0
  5 13  4  0
  5 16  4  0
  6  8  2  0
  6 15  2  0
  6 16  2  0
  7  8  1  0
  7  9  1  0
  8 15  1  0
  9 12  2  0
 11 12  3  0
 11 14  3  0
 12 13  2  0
 12 14  1  0
 12 15  3  0
M  END
$$$$

 Created by Python create_sdf_string function

 28 22  0  0  0  0  0  0  0  0999 V2000
    1.3137  -10.3334   17.7610 C   0  0  0  0  0  0  0  0  0  0  0  0
    3.2907   -6.8639   26.7400 C   0  0  0  0  0  0  0  0  0  0  0  0
    3.8410   -9.7452   29.1882 C   0  0  0  0  0  0  0  0  0  0  0  0
    3.1109   -6.3601   26.9660 C   0  0  0  0  0  0  0  0  0  0  0  0
    3.0517  -10.7002   30.2418 C   0  0  0  0  0  0  0  0  0  0  0  0
    5.2912   -8.9151   28.7455 C   0  0  0  0  0  0  0  0  0  0  0  0
    0.3206  -11.5472   16.9974 C   0  0  0  0  0  0  0  0  0  0  0  0
    0.4436  -11.4525   16.8617 C   0  0  0  0  0  0  0  0  0  0  0  0
    4.8226   -7.1061   27.1234 C   0  0  0  0  0  0  0  0  0  0  0  0
    3.6926   -8.6017   16.6669 C   0  0  0  0  0  0  0  0  0  0  0  0
    3.1020   -6.6123   15.6016 C   0  0  0  0  0  0  0  0  0  0  0  0
    4.0934   -7.4257   16.0624 C   0  0  0  0  0  0  0  0  0  0  0  0
    1.4172   -8.1630   16.4053 C   0  0  0  0  0  0  0  0  0  0  0  0
    2.7198   -8.0412   27.9769 C   0  0  0  0  0  0  0  0  0  0  0  0
    0.0703  -11.9158   18.4226 C   0  0  0  0  0  0  0  0  0  0  0  0
    5.2203   -9.9136   29.7114 C   0  0  0  0  0  0  0  0  0  0  0  0
    2.0331   -4.7416   26.7967 C   0  0  0  0  0  0  0  0  0  0  0  0
    5.3733  -10.9016   30.2853 O   0  0  0  0  0  0  0  0  0  0  0  0
    2.2109   -5.9626   27.4249 C   0  0  0  0  0  0  0  0  0  0  0  0
    2.8125   -8.9792   28.9788 C   0  0  0  0  0  0  0  0  0  0  0  0
    4.7126   -8.1003   27.9793 N   0  0  0  0  0  0  0  0  0  0  0  0
    0.6108  -10.9762   18.8118 C   0  0  0  0  0  0  0  0  0  0  0  0
    1.8000   -6.8669   15.7718 C   0  0  0  0  0  0  0  0  0  0  0  0
    1.6501   -9.9951   17.4095 C   0  0  0  0  0  0  0  0  0  0  0  0
    6.4048   -9.3539   29.5076 O   0  0  0  0  0  0  0  0  0  0  0  0
    1.5363   -4.8397   27.0841 C   0  0  0  0  0  0  0  0  0  0  0  0
    2.2727   -8.9379   16.8166 C   0  0  0  0  0  0  0  0  0  0  0  0
    3.0321  -11.1077   30.1264 C   0  0  0  0  0  0  0  0  0  0  0  0
  1 22  4  0
  1 24  4  0
  2  4  1  0
  3 20  4  0
  3 28  1  0
  5 28  1  0
  6 16  1  0
  6 21  1  0
  7  8  4  0
  9 21  1  0
 10 12  4  0
 10 27  4  0
 11 12  4  0
 11 23  4  0
 13 23  4  0
 13 27  4  0
 14 20  4  0
 15 22  4  0
 16 18  1  0
 16 25  2  0
 17 26  1  0
 24 27  1  0
M  END
$$$$

 Created by Python create_sdf_string function

 28 65  0  0  0  0  0  0  0  0999 V2000
    1.3264   -9.9439   18.0808 C   0  0  0  0  0  0  0  0  0  0  0  0
    4.6664   -9.4063   27.2566 B   0  0  0  0  0  0  0  0  0  0  0  0
    2.1037   -7.5015   25.8882 O   0  0  0  0  0  0  0  0  0  0  0  0
    2.0707  -11.2479   17.4121 O   0  0  0  0  0  0  0  0  0  0  0  0
    4.8062   -6.9735   27.0337 O   0  0  0  0  0  0  0  0  0  0  0  0
    3.1425   -9.2749   16.4776 C   0  0  0  0  0  0  0  0  0  0  0  0
    3.2412   -6.5411   15.5369 C   0  0  0  0  0  0  0  0  0  0  0  0
    4.6732   -6.9537   15.9610 C   0  0  0  0  0  0  0  0  0  0  0  0
    1.3998   -8.7961   16.6033 C   0  0  0  0  0  0  0  0  0  0  0  0
   -0.0896  -12.1187   18.7617 C   0  0  0  0  0  0  0  0  0  0  0  0
    5.2345  -10.1966   30.1650 C   0  0  0  0  0  0  0  0  0  0  0  0
    1.1475   -4.1213   26.8915 C   0  0  0  0  0  0  0  0  0  0  0  0
    5.6149  -10.7302   30.7318 O   0  0  0  0  0  0  0  0  0  0  0  0
    3.1597   -8.9430   28.4751 Se  0  0  0  0  0  0  0  0  0  0  0  0
    4.7135   -8.3369   27.6884 N   0  0  0  0  0  0  0  0  0  0  0  0
    0.9087   -7.0473   15.6360 C   0  0  0  0  0  0  0  0  0  0  0  0
    1.9468  -10.2903   18.3811 N   0  0  0  0  0  0  0  0  0  0  0  0
    6.7106  -10.1623   28.9663 O   0  0  0  0  0  0  0  0  0  0  0  0
    1.1402   -5.3161   26.6340 N   0  0  0  0  0  0  0  0  0  0  0  0
    2.6211   -9.0795   16.9394 C   0  0  0  0  0  0  0  0  0  0  0  0
    3.0680  -10.9829   30.2123 C   0  0  0  0  0  0  0  0  0  0  0  0
    5.0948   -6.5022   25.5860 He  0  0  0  0  0  0  0  0  0  0  0  0
    3.0368  -11.5616   29.3757 He  0  0  0  0  0  0  0  0  0  0  0  0
    4.0234   -9.1077   29.3247 He  0  0  0  0  0  0  0  0  0  0  0  0
   -0.0893  -13.2052   17.1758 He  0  0  0  0  0  0  0  0  0  0  0  0
    1.6174   -9.9650   26.6624 He  0  0  0  0  0  0  0  0  0  0  0  0
    3.4741   -6.1143   26.7352 He  0  0  0  0  0  0  0  0  0  0  0  0
    0.8924  -11.2467   17.6010 He  0  0  0  0  0  0  0  0  0  0  0  0
  1  3  4  0
  1 14  4  0
  1 16  2  0
  1 17  1  0
  2  3  1  0
  2  4  4  0
  2  5  1  0
  2  6  4  0
  2  9  4  0
  2 11  3  0
  2 12  2  0
  2 13  2  0
  2 14  1  0
  2 17  3  0
  2 21  3  0
  3  4  1  0
  3  5  2  0
  3  7  3  0
  3  8  3  0
  3 10  4  0
  3 12  2  0
  3 16  2  0
  3 18  3  0
  3 19  3  0
  4 11  3  0
  4 12  2  0
  4 16  1  0
  4 17  1  0
  5 15  1  0
  5 19  1  0
  6  7  2  0
  6  8  4  0
  6 20  2  0
  7  8  4  0
  7 12  4  0
  7 13  4  0
  7 16  4  0
  8 12  2  0
  8 14  2  0
  8 17  4  0
  8 20  4  0
  9 10  1  0
  9 12  3  0
  9 20  4  0
 10 13  3  0
 10 17  2  0
 10 19  2  0
 11 12  1  0
 11 14  2  0
 11 18  3  0
 11 19  2  0
 11 21  1  0
 12 16  2  0
 12 17  1  0
 12 19  1  0
 12 21  4  0
 13 14  4  0
 13 17  1  0
 13 20  1  0
 15 18  4  0
 15 19  1  0
 16 17  4  0
 16 19  1  0
 17 19  3  0
 17 20  1  0
M  END
$$$$

 Created by Python create_sdf_string function

 28 25  0  0  0  0  0  0  0  0999 V2000
    0.9799  -10.5837   18.0681 C   0  0  0  0  0  0  0  0  0  0  0  0
    4.5590   -6.9966   26.2236 C   0  0  0  0  0  0  0  0  0  0  0  0
    4.1515   -8.6929   27.5038 C   0  0  0  0  0  0  0  0  0  0  0  0
    2.2278   -7.3045   26.6620 O   0  0  0  0  0  0  0  0  0  0  0  0
    2.8095  -11.0917   29.4380 C   0  0  0  0  0  0  0  0  0  0  0  0
    3.9209   -9.5685   28.8317 C   0  0  0  0  0  0  0  0  0  0  0  0
    0.3449  -12.6955   17.3000 C   0  0  0  0  0  0  0  0  0  0  0  0
    1.9252  -11.3920   17.4698 C   0  0  0  0  0  0  0  0  0  0  0  0
    4.6467   -6.9601   27.0352 O   0  0  0  0  0  0  0  0  0  0  0  0
    3.6089   -8.8191   16.7121 C   0  0  0  0  0  0  0  0  0  0  0  0
    3.0655   -6.7195   15.5292 C   0  0  0  0  0  0  0  0  0  0  0  0
    4.0133   -7.5900   16.0309 C   0  0  0  0  0  0  0  0  0  0  0  0
    1.3549   -8.3843   16.5732 C   0  0  0  0  0  0  0  0  0  0  0  0
    2.1038   -9.5466   27.3830 O   0  0  0  0  0  0  0  0  0  0  0  0
   -0.4250  -11.9893   18.8512 O   0  0  0  0  0  0  0  0  0  0  0  0
    5.1701  -10.1240   30.0967 C   0  0  0  0  0  0  0  0  0  0  0  0
    1.5900   -4.8742   26.8363 C   0  0  0  0  0  0  0  0  0  0  0  0
    5.5607  -10.8320   30.7219 O   0  0  0  0  0  0  0  0  0  0  0  0
    3.1004   -6.0492   26.8847 C   0  0  0  0  0  0  0  0  0  0  0  0
    3.0489   -9.2706   28.0649 C   0  0  0  0  0  0  0  0  0  0  0  0
    4.5887   -8.0360   27.5057 C   0  0  0  0  0  0  0  0  0  0  0  0
    0.3448  -11.6064   18.0980 C   0  0  0  0  0  0  0  0  0  0  0  0
    1.6872   -7.0496   15.8553 C   0  0  0  0  0  0  0  0  0  0  0  0
    1.9330  -10.4089   17.5927 C   0  0  0  0  0  0  0  0  0  0  0  0
    6.1745   -9.4498   29.3719 O   0  0  0  0  0  0  0  0  0  0  0  0
    1.7979   -5.5849   26.7556 C   0  0  0  0  0  0  0  0  0  0  0  0
    2.3035   -9.1759   16.9441 C   0  0  0  0  0  0  0  0  0  0  0  0
    3.4802  -10.6201   29.7755 C   0  0  0  0  0  0  0  0  0  0  0  0
  1 22  1  0
  1 24  1  0
  2  9  1  0
  3 20  1  0
  3 21  1  0
  5 28  1  0
  6 20  1  0
  6 28  1  0
  7 22  1  0
  8 24  1  0
  9 21  1  0
 10 12  4  0
 10 27  4  0
 11 12  4  0
 11 23  4  0
 13 23  4  0
 13 27  4  0
 14 20  1  0
 15 22  2  0
 16 18  1  0
 16 25  1  0
 16 28  1  0
 17 26  1  0
 19 26  1  0
 24 27  1  0
M  END
$$$$

 Created by Python create_sdf_string function

 28 49  0  0  0  0  0  0  0  0999 V2000
    1.3433  -10.9212   30.7404 O   0  0  0  0  0  0  0  0  0  0  0  0
    0.4397  -12.0711   16.6396 C   0  0  0  0  0  0  0  0  0  0  0  0
    0.6275   -9.9910   17.3469 S   0  0  0  0  0  0  0  0  0  0  0  0
    4.5176   -6.5573   26.5993 O   0  0  0  0  0  0  0  0  0  0  0  0
    3.1676   -8.9073   16.8989 O   0  0  0  0  0  0  0  0  0  0  0  0
    2.5690   -6.6843   15.3420 C   0  0  0  0  0  0  0  0  0  0  0  0
    3.7082   -7.1370   16.0914 C   0  0  0  0  0  0  0  0  0  0  0  0
   -0.2495  -11.9404   18.5968 C   0  0  0  0  0  0  0  0  0  0  0  0
    4.9458  -10.3018   30.0892 C   0  0  0  0  0  0  0  0  0  0  0  0
    3.1547   -5.9833   28.1031 O   0  0  0  0  0  0  0  0  0  0  0  0
    5.8041  -10.7015   30.8787 Cl  0  0  0  0  0  0  0  0  0  0  0  0
    3.1222   -9.8166   28.3586 O   0  0  0  0  0  0  0  0  0  0  0  0
    4.4610   -8.0694   27.6894 C   0  0  0  0  0  0  0  0  0  0  0  0
    0.6339  -11.8228   18.5135 C   0  0  0  0  0  0  0  0  0  0  0  0
    6.2462   -9.3946   29.4436 O   0  0  0  0  0  0  0  0  0  0  0  0
    0.0052   -7.4213   27.0134 Cl  0  0  0  0  0  0  0  0  0  0  0  0
    2.3035   -9.2747   16.5088 C   0  0  0  0  0  0  0  0  0  0  0  0
    3.5024  -10.0809   29.9523 O   0  0  0  0  0  0  0  0  0  0  0  0
    1.0554  -10.5002   17.8188 He  0  0  0  0  0  0  0  0  0  0  0  0
    3.6850   -7.4682   26.5608 He  0  0  0  0  0  0  0  0  0  0  0  0
    3.8673   -8.9319   25.6925 He  0  0  0  0  0  0  0  0  0  0  0  0
    1.0637   -6.8793   28.8959 He  0  0  0  0  0  0  0  0  0  0  0  0
    3.4837  -10.2542   29.0237 He  0  0  0  0  0  0  0  0  0  0  0  0
    1.4739   -8.3530   16.0470 He  0  0  0  0  0  0  0  0  0  0  0  0
    1.2627   -8.3285   28.1085 He  0  0  0  0  0  0  0  0  0  0  0  0
    3.3517   -5.4687   27.9590 He  0  0  0  0  0  0  0  0  0  0  0  0
    2.1322   -6.8544   15.8554 He  0  0  0  0  0  0  0  0  0  0  0  0
    2.5730  -12.0711   16.9957 He  0  0  0  0  0  0  0  0  0  0  0  0
  1  7  2  0
  1 12  4  0
  1 13  2  0
  1 15  4  0
  1 16  2  0
  1 18  1  0
  2  7  1  0
  2 10  2  0
  2 13  4  0
  2 14  2  0
  2 15  1  0
  2 16  2  0
  3  5  1  0
  3 11  4  0
  3 15  4  0
  3 16  4  0
  3 17  4  0
  4 13  1  0
  4 16  2  0
  5  7  4  0
  5 16  3  0
  5 17  4  0
  5 18  2  0
  6  7  4  0
  6 10  1  0
  6 15  2  0
  6 17  4  0
  7 12  3  0
  7 13  3  0
  7 16  1  0
  7 17  1  0
  8  9  2  0
  8 10  3  0
  8 14  2  0
  9 11  1  0
  9 15  1  0
  9 18  1  0
 10 11  1  0
 10 12  4  0
 10 13  4  0
 10 15  4  0
 10 16  1  0
 10 18  2  0
 11 14  2  0
 12 14  3  0
 12 16  3  0
 13 14  1  0
 13 18  3  0
 16 17  2  0
M  END
$$$$

 Created by Python create_sdf_string function

 28 21  0  0  0  0  0  0  0  0999 V2000
    1.0574  -10.4542   17.5163 C   0  0  0  0  0  0  0  0  0  0  0  0
    3.0524   -7.3902   26.9270 C   0  0  0  0  0  0  0  0  0  0  0  0
    3.1652   -8.3736   26.5276 O   0  0  0  0  0  0  0  0  0  0  0  0
    1.3265   -7.1910   28.7348 O   0  0  0  0  0  0  0  0  0  0  0  0
    2.3152  -10.3202   30.0809 O   0  0  0  0  0  0  0  0  0  0  0  0
    3.8304   -9.2336   28.5244 C   0  0  0  0  0  0  0  0  0  0  0  0
    0.4020  -11.8894   17.7816 C   0  0  0  0  0  0  0  0  0  0  0  0
    1.0225  -10.2940   17.5093 C   0  0  0  0  0  0  0  0  0  0  0  0
    4.7493   -6.4584   26.6668 O   0  0  0  0  0  0  0  0  0  0  0  0
    3.3776   -8.7583   16.7097 C   0  0  0  0  0  0  0  0  0  0  0  0
    2.9457   -6.6991   15.6201 C   0  0  0  0  0  0  0  0  0  0  0  0
    3.8673   -7.5503   16.1603 C   0  0  0  0  0  0  0  0  0  0  0  0
    1.1142   -8.1176   16.2594 C   0  0  0  0  0  0  0  0  0  0  0  0
    1.8166   -8.4160   28.1475 C   0  0  0  0  0  0  0  0  0  0  0  0
   -0.3399  -12.1622   18.6548 C   0  0  0  0  0  0  0  0  0  0  0  0
    5.1413  -10.1053   30.1094 C   0  0  0  0  0  0  0  0  0  0  0  0
    2.7716   -5.9902   28.0229 O   0  0  0  0  0  0  0  0  0  0  0  0
    5.6430  -10.7210   31.1362 C   0  0  0  0  0  0  0  0  0  0  0  0
    3.0384   -5.9990   27.6067 C   0  0  0  0  0  0  0  0  0  0  0  0
    3.0567   -9.6892   28.3908 C   0  0  0  0  0  0  0  0  0  0  0  0
    4.4552   -8.0025   27.6723 C   0  0  0  0  0  0  0  0  0  0  0  0
    0.4934  -12.1057   18.2051 C   0  0  0  0  0  0  0  0  0  0  0  0
    1.6447   -6.8921   15.5996 C   0  0  0  0  0  0  0  0  0  0  0  0
    2.0279  -11.2187   17.7075 C   0  0  0  0  0  0  0  0  0  0  0  0
    5.9568   -9.5240   29.2776 O   0  0  0  0  0  0  0  0  0  0  0  0
    1.1863   -6.9733   27.3702 C   0  0  0  0  0  0  0  0  0  0  0  0
    1.9991   -8.9491   16.7440 C   0  0  0  0  0  0  0  0  0  0  0  0
    3.5790  -10.1818   30.0368 C   0  0  0  0  0  0  0  0  0  0  0  0
  1  8  4  0
  2  3  1  0
  4 14  1  0
  5 28  1  0
  6 20  1  0
  6 21  1  0
  7 15  4  0
  9 21  1  0
 10 12  4  0
 10 27  4  0
 11 12  4  0
 11 23  4  0
 13 23  4  0
 13 27  4  0
 15 22  4  0
 16 18  1  0
 16 25  1  0
 16 28  1  0
 17 19  1  0
 20 28  1  0
 22 24  4  0
M  END
$$$$

 Created by Python create_sdf_string function

 28 36  0  0  0  0  0  0  0  0999 V2000
    2.8149  -11.8231   29.7692 I   0  0  0  0  0  0  0  0  0  0  0  0
    0.4948  -11.4947   18.0206 F   0  0  0  0  0  0  0  0  0  0  0  0
    1.8121  -10.4179   16.5601 N   0  0  0  0  0  0  0  0  0  0  0  0
    4.5318   -6.6246   26.5642 O   0  0  0  0  0  0  0  0  0  0  0  0
    3.5956   -8.9032   16.5801 C   0  0  0  0  0  0  0  0  0  0  0  0
    3.0429   -7.1747   15.7117 C   0  0  0  0  0  0  0  0  0  0  0  0
    3.7728   -7.6977   15.9615 C   0  0  0  0  0  0  0  0  0  0  0  0
    0.6229   -8.0939   16.5029 C   0  0  0  0  0  0  0  0  0  0  0  0
   -0.5594  -12.3777   18.4179 C   0  0  0  0  0  0  0  0  0  0  0  0
    5.0483   -9.9334   29.7725 C   0  0  0  0  0  0  0  0  0  0  0  0
    5.9881  -10.8533   30.9845 C   0  0  0  0  0  0  0  0  0  0  0  0
    2.2752  -10.5381   27.7463 C   0  0  0  0  0  0  0  0  0  0  0  0
    4.3356   -8.1677   27.5644 C   0  0  0  0  0  0  0  0  0  0  0  0
    0.3248  -12.8071   18.5635 C   0  0  0  0  0  0  0  0  0  0  0  0
    1.9964   -6.5379   15.6883 C   0  0  0  0  0  0  0  0  0  0  0  0
    5.6540   -9.2089   29.2449 O   0  0  0  0  0  0  0  0  0  0  0  0
    3.3967  -10.7096   29.7164 C   0  0  0  0  0  0  0  0  0  0  0  0
    1.2660  -10.5320   17.6221 He  0  0  0  0  0  0  0  0  0  0  0  0
    3.7845   -8.4069   28.0362 He  0  0  0  0  0  0  0  0  0  0  0  0
    2.2062   -8.8290   26.2345 He  0  0  0  0  0  0  0  0  0  0  0  0
    1.5031   -7.1460   28.1550 He  0  0  0  0  0  0  0  0  0  0  0  0
    3.5425   -8.9690   27.6245 He  0  0  0  0  0  0  0  0  0  0  0  0
    2.0377   -7.8162   27.8651 He  0  0  0  0  0  0  0  0  0  0  0  0
    2.1998   -7.1153   28.2426 He  0  0  0  0  0  0  0  0  0  0  0  0
    2.6978   -5.5163   26.6612 He  0  0  0  0  0  0  0  0  0  0  0  0
    3.3961  -11.3043   17.3824 He  0  0  0  0  0  0  0  0  0  0  0  0
    2.4651   -7.7899   26.1149 He  0  0  0  0  0  0  0  0  0  0  0  0
    2.4462   -8.6086   16.9288 He  0  0  0  0  0  0  0  0  0  0  0  0
  1  5  2  0
  1 10  4  0
  1 14  2  0
  1 16  2  0
  2  4  1  0
  2  5  3  0
  2  7  1  0
  3  4  1  0
  3  6  1  0
  3  7  2  0
  3  8  1  0
  3 11  2  0
  3 15  1  0
  3 16  2  0
  4 13  1  0
  5  7  4  0
  5 11  1  0
  5 12  2  0
  5 14  3  0
  5 16  4  0
  5 17  4  0
  6 15  4  0
  7 14  1  0
  8 12  2  0
  8 13  1  0
  8 14  3  0
  8 15  4  0
  9 16  3  0
 10 11  1  0
 10 16  1  0
 10 17  3  0
 11 14  1  0
 12 16  2  0
 12 17  1  0
 13 14  1  0
 16 17  2  0
M  END
$$$$

 Created by Python create_sdf_string function

 28 24  0  0  0  0  0  0  0  0999 V2000
    1.1758  -10.6758   17.6586 C   0  0  0  0  0  0  0  0  0  0  0  0
    4.0683   -8.0712   28.0078 C   0  0  0  0  0  0  0  0  0  0  0  0
    2.0403   -8.9576   26.6509 O   0  0  0  0  0  0  0  0  0  0  0  0
    1.4406   -6.9237   27.9550 C   0  0  0  0  0  0  0  0  0  0  0  0
    3.2837  -11.6114   29.7386 O   0  0  0  0  0  0  0  0  0  0  0  0
    3.3689   -8.9216   27.8217 C   0  0  0  0  0  0  0  0  0  0  0  0
    0.6023  -11.4156   18.1956 C   0  0  0  0  0  0  0  0  0  0  0  0
    1.4338  -10.2606   17.2976 N   0  0  0  0  0  0  0  0  0  0  0  0
    4.6849   -6.6057   26.6186 O   0  0  0  0  0  0  0  0  0  0  0  0
    3.4685   -8.8549   16.5647 C   0  0  0  0  0  0  0  0  0  0  0  0
    3.0736   -6.7493   15.5591 C   0  0  0  0  0  0  0  0  0  0  0  0
    3.9790   -7.6982   15.9579 C   0  0  0  0  0  0  0  0  0  0  0  0
    1.1960   -8.0302   16.4059 C   0  0  0  0  0  0  0  0  0  0  0  0
    1.9022   -7.8250   27.5730 C   0  0  0  0  0  0  0  0  0  0  0  0
   -0.3721  -12.2043   18.4085 C   0  0  0  0  0  0  0  0  0  0  0  0
    4.9648  -10.0072   29.8056 C   0  0  0  0  0  0  0  0  0  0  0  0
    2.0702   -7.1511   28.0665 C   0  0  0  0  0  0  0  0  0  0  0  0
    5.6210  -10.7566   30.8667 C   0  0  0  0  0  0  0  0  0  0  0  0
    2.3100   -5.6815   26.7348 O   0  0  0  0  0  0  0  0  0  0  0  0
    2.5783  -10.0018   28.4754 C   0  0  0  0  0  0  0  0  0  0  0  0
    4.2017   -7.9787   27.6073 C   0  0  0  0  0  0  0  0  0  0  0  0
    0.5090  -12.2101   18.2635 C   0  0  0  0  0  0  0  0  0  0  0  0
    1.7364   -6.8044   15.7727 C   0  0  0  0  0  0  0  0  0  0  0  0
    2.1856  -11.4007   17.9866 C   0  0  0  0  0  0  0  0  0  0  0  0
    5.7635   -9.2090   29.3232 O   0  0  0  0  0  0  0  0  0  0  0  0
    2.5818   -7.1995   26.5527 C   0  0  0  0  0  0  0  0  0  0  0  0
    2.0766   -8.9779   16.7395 C   0  0  0  0  0  0  0  0  0  0  0  0
    3.6034  -10.5282   29.4103 C   0  0  0  0  0  0  0  0  0  0  0  0
  1  7  4  0
  1  8  4  0
  1 24  4  0
  2 21  1  0
  4 17  1  0
  5 28  1  0
  6 20  1  0
  6 21  1  0
  7 22  4  0
  8 27  1  0
  9 21  1  0
 10 12  4  0
 10 27  4  0
 11 12  4  0
 11 23  4  0
 13 23  4  0
 13 27  4  0
 15 22  4  0
 16 18  1  0
 16 25  1  0
 16 28  1  0
 19 26  1  0
 20 28  1  0
 22 24  4  0
M  END
$$$$

 Created by Python create_sdf_string function

 28 73  0  0  0  0  0  0  0  0999 V2000
    1.5212  -10.8764   17.3941 C   0  0  0  0  0  0  0  0  0  0  0  0
    4.1615   -8.5522   27.8992 C   0  0  0  0  0  0  0  0  0  0  0  0
    2.0307   -7.3721   26.4886 N   0  0  0  0  0  0  0  0  0  0  0  0
   -0.2939  -11.7356   16.4572 C   0  0  0  0  0  0  0  0  0  0  0  0
    2.0788  -10.9948   16.6839 N   0  0  0  0  0  0  0  0  0  0  0  0
    4.9428   -6.6024   26.3871 O   0  0  0  0  0  0  0  0  0  0  0  0
    3.5252   -9.0983   16.5126 C   0  0  0  0  0  0  0  0  0  0  0  0
    2.4045   -6.5517   15.8997 C   0  0  0  0  0  0  0  0  0  0  0  0
    4.0362   -7.9419   15.9708 C   0  0  0  0  0  0  0  0  0  0  0  0
    1.3483   -7.9637   16.3099 C   0  0  0  0  0  0  0  0  0  0  0  0
    1.8619   -7.6914   27.1151 C   0  0  0  0  0  0  0  0  0  0  0  0
   -0.5117  -12.6454   18.5094 C   0  0  0  0  0  0  0  0  0  0  0  0
    5.3969   -9.8973   29.8658 C   0  0  0  0  0  0  0  0  0  0  0  0
   -0.0765   -7.9548   27.5695 P   0  0  0  0  0  0  0  0  0  0  0  0
    6.0671  -10.9069   30.8094 C   0  0  0  0  0  0  0  0  0  0  0  0
    2.6770   -9.9284   28.7058 C   0  0  0  0  0  0  0  0  0  0  0  0
    4.3135   -7.5458   27.5428 C   0  0  0  0  0  0  0  0  0  0  0  0
    1.6342  -11.8944   17.2747 C   0  0  0  0  0  0  0  0  0  0  0  0
    1.9720   -7.2503   15.2387 C   0  0  0  0  0  0  0  0  0  0  0  0
    5.5233   -9.2804   29.3777 O   0  0  0  0  0  0  0  0  0  0  0  0
    1.4646   -7.2734   27.1707 C   0  0  0  0  0  0  0  0  0  0  0  0
    2.2925   -9.6595   17.2617 C   0  0  0  0  0  0  0  0  0  0  0  0
    3.8307  -10.6822   29.6814 C   0  0  0  0  0  0  0  0  0  0  0  0
    1.4393   -6.8080   27.7764 He  0  0  0  0  0  0  0  0  0  0  0  0
    2.4647  -11.4734   28.7034 He  0  0  0  0  0  0  0  0  0  0  0  0
    4.8300  -10.0198   27.2047 He  0  0  0  0  0  0  0  0  0  0  0  0
    2.4961   -6.9527   26.3922 He  0  0  0  0  0  0  0  0  0  0  0  0
    1.9374  -11.6616   18.1551 He  0  0  0  0  0  0  0  0  0  0  0  0
  1 15  1  0
  1 23  4  0
  2  4  4  0
  2  7  1  0
  2 13  4  0
  2 15  4  0
  2 16  4  0
  2 19  1  0
  2 21  3  0
  3  4  2  0
  3 10  2  0
  3 11  3  0
  3 12  1  0
  3 14  1  0
  3 16  4  0
  3 17  2  0
  3 18  2  0
  3 19  2  0
  3 20  2  0
  3 21  2  0
  3 22  3  0
  4  6  3  0
  4  7  2  0
  4 12  2  0
  4 14  4  0
  4 16  2  0
  4 19  1  0
  4 20  3  0
  4 21  1  0
  4 22  2  0
  5  7  1  0
  5  8  4  0
  5  9  2  0
  5 20  4  0
  5 22  2  0
  6  7  2  0
  6 10  1  0
  6 11  2  0
  6 12  1  0
  6 19  4  0
  7  9  4  0
  7 14  4  0
  7 20  2  0
  7 21  3  0
  7 22  2  0
  8  9  4  0
  8 12  4  0
  8 17  3  0
  8 18  4  0
  8 19  4  0
  9 11  2  0
 10 12  3  0
 10 19  4  0
 10 20  1  0
 10 21  2  0
 10 22  4  0
 11 14  4  0
 11 17  4  0
 11 20  3  0
 11 23  2  0
 12 20  1  0
 13 14  2  0
 13 15  1  0
 13 20  1  0
 13 23  1  0
 14 16  2  0
 14 17  4  0
 14 21  1  0
 15 16  4  0
 15 22  3  0
 18 22  2  0
 19 20  1  0
 19 21  1  0
M  END
$$$$

 Created by Python create_sdf_string function

 28 20  0  0  0  0  0  0  0  0999 V2000
    1.6443  -11.0223   17.6131 C   0  0  0  0  0  0  0  0  0  0  0  0
    3.9792   -8.8373   27.8869 C   0  0  0  0  0  0  0  0  0  0  0  0
    2.1282   -7.0647   26.7843 N   0  0  0  0  0  0  0  0  0  0  0  0
    1.2408   -6.5298   27.6863 O   0  0  0  0  0  0  0  0  0  0  0  0
    2.4775  -10.5224   28.9071 O   0  0  0  0  0  0  0  0  0  0  0  0
    4.5909   -9.6047   27.6504 O   0  0  0  0  0  0  0  0  0  0  0  0
   -0.0028  -11.5947   17.0658 C   0  0  0  0  0  0  0  0  0  0  0  0
    1.5919  -10.7847   17.0803 C   0  0  0  0  0  0  0  0  0  0  0  0
    4.8873   -6.8232   26.4205 O   0  0  0  0  0  0  0  0  0  0  0  0
    3.5745   -8.9403   16.5813 C   0  0  0  0  0  0  0  0  0  0  0  0
    2.9366   -6.8380   15.6082 C   0  0  0  0  0  0  0  0  0  0  0  0
    3.9332   -7.7299   16.0327 C   0  0  0  0  0  0  0  0  0  0  0  0
    1.2193   -8.3160   16.2987 C   0  0  0  0  0  0  0  0  0  0  0  0
    2.2242   -7.9046   27.3432 C   0  0  0  0  0  0  0  0  0  0  0  0
   -0.2156  -12.3118   18.2282 C   0  0  0  0  0  0  0  0  0  0  0  0
    5.2350  -10.0780   29.8546 C   0  0  0  0  0  0  0  0  0  0  0  0
    0.8208   -7.9241   28.0518 O   0  0  0  0  0  0  0  0  0  0  0  0
    5.8661  -10.7196   30.8822 C   0  0  0  0  0  0  0  0  0  0  0  0
    2.7602   -6.7096   26.6381 C   0  0  0  0  0  0  0  0  0  0  0  0
    2.8774   -9.7391   28.6249 C   0  0  0  0  0  0  0  0  0  0  0  0
    4.2482   -7.5620   27.3024 C   0  0  0  0  0  0  0  0  0  0  0  0
    0.7608  -12.0753   17.3118 C   0  0  0  0  0  0  0  0  0  0  0  0
    1.6279   -7.0908   15.8646 C   0  0  0  0  0  0  0  0  0  0  0  0
    1.1758  -11.2862   18.2242 C   0  0  0  0  0  0  0  0  0  0  0  0
    5.8853   -9.2172   29.2774 O   0  0  0  0  0  0  0  0  0  0  0  0
    1.4973   -7.0603   27.3689 C   0  0  0  0  0  0  0  0  0  0  0  0
    2.1741   -9.3052   16.6605 C   0  0  0  0  0  0  0  0  0  0  0  0
    3.9226  -10.6177   29.5976 C   0  0  0  0  0  0  0  0  0  0  0  0
  1  8  4  0
  1 24  4  0
  2  6  1  0
  2 20  4  0
  2 21  1  0
  5 20  1  0
  7 15  4  0
  8 27  1  0
  9 21  1  0
 10 12  4  0
 10 27  4  0
 11 12  4  0
 11 23  4  0
 13 23  4  0
 13 27  4  0
 16 18  1  0
 16 25  1  0
 16 28  1  0
 17 26  1  0
 20 28  1  0
M  END
$$$$

 Created by Python create_sdf_string function

 28 30  0  0  0  0  0  0  0  0999 V2000
    2.2693   -6.4565   25.8826 N   0  0  0  0  0  0  0  0  0  0  0  0
    3.8688   -9.9341   28.4558 Cl  0  0  0  0  0  0  0  0  0  0  0  0
   -0.0706  -12.0032   16.3894 N   0  0  0  0  0  0  0  0  0  0  0  0
    4.6822   -7.1570   25.9593 C   0  0  0  0  0  0  0  0  0  0  0  0
    3.2565   -9.1108   17.1077 C   0  0  0  0  0  0  0  0  0  0  0  0
    2.7701   -7.0220   15.4931 C   0  0  0  0  0  0  0  0  0  0  0  0
    4.1344   -7.7011   16.3038 C   0  0  0  0  0  0  0  0  0  0  0  0
    3.0868   -6.9351   26.9494 C   0  0  0  0  0  0  0  0  0  0  0  0
   -0.4379  -12.5488   18.6056 C   0  0  0  0  0  0  0  0  0  0  0  0
    1.2109   -8.3540   28.4153 O   0  0  0  0  0  0  0  0  0  0  0  0
    3.1389   -7.3601   26.5505 F   0  0  0  0  0  0  0  0  0  0  0  0
    2.7313   -9.6699   28.5511 C   0  0  0  0  0  0  0  0  0  0  0  0
    4.6574   -7.7517   27.3744 C   0  0  0  0  0  0  0  0  0  0  0  0
    1.7397   -7.0931   15.8324 O   0  0  0  0  0  0  0  0  0  0  0  0
    1.3116  -10.9425   17.6467 C   0  0  0  0  0  0  0  0  0  0  0  0
    3.7534  -10.2412   29.7593 C   0  0  0  0  0  0  0  0  0  0  0  0
    1.7970  -10.8627   17.6917 He  0  0  0  0  0  0  0  0  0  0  0  0
    2.5319   -8.7732   27.3182 He  0  0  0  0  0  0  0  0  0  0  0  0
    1.8237   -6.6823   26.4707 He  0  0  0  0  0  0  0  0  0  0  0  0
    0.9700  -10.3678   29.5926 He  0  0  0  0  0  0  0  0  0  0  0  0
    2.4520  -10.0913   17.1780 He  0  0  0  0  0  0  0  0  0  0  0  0
    1.9901   -8.5997   16.0842 He  0  0  0  0  0  0  0  0  0  0  0  0
    5.2397   -9.6811   29.8994 He  0  0  0  0  0  0  0  0  0  0  0  0
    5.7080  -10.7555   31.0642 He  0  0  0  0  0  0  0  0  0  0  0  0
   -0.5446  -11.4896   17.9488 He  0  0  0  0  0  0  0  0  0  0  0  0
    5.9179   -8.9320   29.1587 He  0  0  0  0  0  0  0  0  0  0  0  0
    0.7113   -6.8596   29.0534 He  0  0  0  0  0  0  0  0  0  0  0  0
    2.1844   -9.2875   16.5418 He  0  0  0  0  0  0  0  0  0  0  0  0
  1  2  2  0
  1  4  1  0
  1  5  3  0
  1 10  4  0
  1 13  4  0
  1 14  2  0
  1 16  4  0
  2  4  2  0
  2  5  1  0
  2  9  2  0
  2 14  4  0
  2 16  2  0
  3  6  1  0
  3 10  3  0
  3 13  4  0
  3 15  3  0
  4 13  1  0
  5 10  1  0
  5 11  3  0
  6  7  4  0
  6 14  4  0
  8 15  3  0
  9 11  1  0
  9 13  4  0
  9 15  4  0
  9 16  4  0
 10 11  4  0
 11 15  2  0
 11 16  4  0
 15 16  4  0
M  END
$$$$

 Created by Python create_sdf_string function

 28 19  0  0  0  0  0  0  0  0999 V2000
    1.7608  -10.8092   18.0486 C   0  0  0  0  0  0  0  0  0  0  0  0
    2.8804   -8.5990   27.9101 C   0  0  0  0  0  0  0  0  0  0  0  0
    2.8553   -6.4080   26.2686 N   0  0  0  0  0  0  0  0  0  0  0  0
    1.5172   -6.4686   27.1316 C   0  0  0  0  0  0  0  0  0  0  0  0
    1.5153   -9.9858   29.4136 O   0  0  0  0  0  0  0  0  0  0  0  0
    3.6696   -9.6228   28.7069 N   0  0  0  0  0  0  0  0  0  0  0  0
    0.0506  -11.2348   16.8587 C   0  0  0  0  0  0  0  0  0  0  0  0
    1.2732  -10.3531   17.1601 C   0  0  0  0  0  0  0  0  0  0  0  0
    4.5110   -7.0911   26.0643 C   0  0  0  0  0  0  0  0  0  0  0  0
    3.5583   -8.9008   16.8601 C   0  0  0  0  0  0  0  0  0  0  0  0
    3.1371   -6.9195   15.6946 C   0  0  0  0  0  0  0  0  0  0  0  0
    4.0458   -7.7334   16.3104 C   0  0  0  0  0  0  0  0  0  0  0  0
    1.3229   -8.4466   16.2338 C   0  0  0  0  0  0  0  0  0  0  0  0
    2.5643   -6.9462   27.0698 C   0  0  0  0  0  0  0  0  0  0  0  0
   -0.1478  -12.0455   18.5100 C   0  0  0  0  0  0  0  0  0  0  0  0
    5.4407   -9.8848   29.9262 C   0  0  0  0  0  0  0  0  0  0  0  0
    1.3854   -8.5217   28.4145 C   0  0  0  0  0  0  0  0  0  0  0  0
    5.6438  -10.5678   30.8355 O   0  0  0  0  0  0  0  0  0  0  0  0
    2.5985   -7.5195   27.1496 C   0  0  0  0  0  0  0  0  0  0  0  0
    2.4311   -9.5181   28.8602 C   0  0  0  0  0  0  0  0  0  0  0  0
    4.8085   -7.8578   27.1223 C   0  0  0  0  0  0  0  0  0  0  0  0
   -0.2762  -11.6862   17.7580 C   0  0  0  0  0  0  0  0  0  0  0  0
    1.8554   -7.1542   15.6247 C   0  0  0  0  0  0  0  0  0  0  0  0
    1.0644  -11.3216   18.3055 C   0  0  0  0  0  0  0  0  0  0  0  0
    6.1192   -9.2896   29.3143 O   0  0  0  0  0  0  0  0  0  0  0  0
    0.7435   -7.1145   28.4377 C   0  0  0  0  0  0  0  0  0  0  0  0
    2.1028   -9.2030   16.7741 C   0  0  0  0  0  0  0  0  0  0  0  0
    3.6121  -10.2526   29.5695 C   0  0  0  0  0  0  0  0  0  0  0  0
  1  8  4  0
  1 24  4  0
  2  6  1  0
  3  9  1  0
  6 28  1  0
  7 22  4  0
  8 27  1  0
  9 21  1  0
 10 12  4  0
 10 27  4  0
 11 12  4  0
 11 23  4  0
 13 23  4  0
 13 27  4  0
 14 19  1  0
 15 22  4  0
 15 24  4  0
 16 18  1  0
 16 25  1  0
M  END
$$$$

 Created by Python create_sdf_string function

 28 33  0  0  0  0  0  0  0  0999 V2000
    1.5374  -10.9527   18.1447 C   0  0  0  0  0  0  0  0  0  0  0  0
    2.5953   -8.8566   28.2838 C   0  0  0  0  0  0  0  0  0  0  0  0
    2.0463   -8.5979   27.7277 Cl  0  0  0  0  0  0  0  0  0  0  0  0
    1.9891  -11.9565   16.7248 O   0  0  0  0  0  0  0  0  0  0  0  0
    2.7326   -6.7896   15.6837 C   0  0  0  0  0  0  0  0  0  0  0  0
    1.7893   -8.1770   15.9356 C   0  0  0  0  0  0  0  0  0  0  0  0
   -0.0810  -11.5565   18.2410 C   0  0  0  0  0  0  0  0  0  0  0  0
    1.1064   -8.6958   29.4460 Cl  0  0  0  0  0  0  0  0  0  0  0  0
    3.8154   -6.3046   27.2467 C   0  0  0  0  0  0  0  0  0  0  0  0
    2.6628   -9.6138   29.0341 C   0  0  0  0  0  0  0  0  0  0  0  0
   -0.3919  -11.6305   18.2079 N   0  0  0  0  0  0  0  0  0  0  0  0
    1.9495  -10.9931   18.4073 O   0  0  0  0  0  0  0  0  0  0  0  0
    6.1722   -9.1566   29.3729 O   0  0  0  0  0  0  0  0  0  0  0  0
    2.0762   -8.8698   16.8223 C   0  0  0  0  0  0  0  0  0  0  0  0
    3.5604  -10.3244   29.4179 C   0  0  0  0  0  0  0  0  0  0  0  0
    2.8480   -6.4637   25.4643 He  0  0  0  0  0  0  0  0  0  0  0  0
    1.3660   -6.8773   28.7659 He  0  0  0  0  0  0  0  0  0  0  0  0
    1.9268   -9.7916   29.9167 He  0  0  0  0  0  0  0  0  0  0  0  0
   -0.2196  -10.6057   17.1168 He  0  0  0  0  0  0  0  0  0  0  0  0
    4.3370   -7.2442   25.9530 He  0  0  0  0  0  0  0  0  0  0  0  0
    3.6295   -9.2519   16.7231 He  0  0  0  0  0  0  0  0  0  0  0  0
    3.6080   -7.3658   16.7484 He  0  0  0  0  0  0  0  0  0  0  0  0
    3.7695   -6.5891   24.7779 He  0  0  0  0  0  0  0  0  0  0  0  0
    5.9133   -9.5470   29.6055 He  0  0  0  0  0  0  0  0  0  0  0  0
    5.6253  -10.4733   31.1454 He  0  0  0  0  0  0  0  0  0  0  0  0
    4.6301   -7.4784   27.0350 He  0  0  0  0  0  0  0  0  0  0  0  0
    1.9530   -7.0208   15.5753 He  0  0  0  0  0  0  0  0  0  0  0  0
    1.4791   -7.2248   27.5854 He  0  0  0  0  0  0  0  0  0  0  0  0
  1  3  1  0
  1 11  3  0
  1 12  3  0
  2  3  1  0
  2  5  3  0
  2  8  1  0
  2  9  3  0
  2 10  3  0
  2 12  2  0
  2 13  3  0
  3 10  4  0
  3 11  4  0
  3 13  2  0
  3 14  2  0
  4  5  3  0
  4 13  4  0
  4 15  2  0
  6 11  3  0
  6 14  1  0
  7  8  4  0
  7  9  1  0
  7 11  4  0
  8 11  3  0
  8 14  2  0
  8 15  4  0
  9 10  1  0
  9 11  3  0
  9 12  1  0
  9 13  4  0
  9 15  1  0
 11 14  3  0
 12 13  3  0
 12 14  2  0
M  END
$$$$

 Created by Python create_sdf_string function

 28 19  0  0  0  0  0  0  0  0999 V2000
    1.3774  -10.9403   18.0389 C   0  0  0  0  0  0  0  0  0  0  0  0
    2.8162   -8.5441   28.2920 C   0  0  0  0  0  0  0  0  0  0  0  0
    2.7510   -6.4261   26.2271 C   0  0  0  0  0  0  0  0  0  0  0  0
    1.3120   -6.9810   28.4197 C   0  0  0  0  0  0  0  0  0  0  0  0
    2.5950  -10.0298   29.7891 C   0  0  0  0  0  0  0  0  0  0  0  0
    2.4487   -8.4712   28.1858 C   0  0  0  0  0  0  0  0  0  0  0  0
   -0.2669  -10.6316   17.3047 C   0  0  0  0  0  0  0  0  0  0  0  0
    1.5661  -10.7404   17.2418 C   0  0  0  0  0  0  0  0  0  0  0  0
    4.7049   -7.4533   26.6246 C   0  0  0  0  0  0  0  0  0  0  0  0
    3.3194   -8.9608   16.9948 C   0  0  0  0  0  0  0  0  0  0  0  0
    3.0368   -6.9173   15.8339 C   0  0  0  0  0  0  0  0  0  0  0  0
    3.8730   -7.7404   16.5451 C   0  0  0  0  0  0  0  0  0  0  0  0
    1.2137   -8.3365   16.1020 C   0  0  0  0  0  0  0  0  0  0  0  0
    3.8530   -7.0867   25.6058 C   0  0  0  0  0  0  0  0  0  0  0  0
   -0.4789  -11.4513   18.3377 C   0  0  0  0  0  0  0  0  0  0  0  0
    5.4452   -9.7695   29.8309 C   0  0  0  0  0  0  0  0  0  0  0  0
    1.1483   -8.8291   29.2470 O   0  0  0  0  0  0  0  0  0  0  0  0
    5.4908  -10.4397   30.7327 C   0  0  0  0  0  0  0  0  0  0  0  0
    3.2096   -6.4616   26.9682 C   0  0  0  0  0  0  0  0  0  0  0  0
    2.9565   -9.2536   28.8074 C   0  0  0  0  0  0  0  0  0  0  0  0
    4.6555   -7.9329   27.1422 C   0  0  0  0  0  0  0  0  0  0  0  0
   -0.3366  -11.7235   18.4700 N   0  0  0  0  0  0  0  0  0  0  0  0
    1.7706   -7.1090   15.6295 C   0  0  0  0  0  0  0  0  0  0  0  0
    1.7857  -10.9780   18.2722 C   0  0  0  0  0  0  0  0  0  0  0  0
    6.1762   -9.2939   29.3317 O   0  0  0  0  0  0  0  0  0  0  0  0
    1.4801   -6.8905   27.4883 C   0  0  0  0  0  0  0  0  0  0  0  0
    2.0574   -9.2402   16.7904 C   0  0  0  0  0  0  0  0  0  0  0  0
    3.6674   -9.9215   29.5136 C   0  0  0  0  0  0  0  0  0  0  0  0
  1  8  4  0
  1 24  4  0
  2  6  1  0
  3 19  1  0
  5 28  1  0
  6 20  4  0
  7 15  4  0
  8 24  4  0
  9 21  1  0
 10 12  4  0
 10 27  4  0
 11 12  4  0
 11 23  4  0
 13 23  4  0
 13 27  4  0
 15 22  4  0
 16 18  1  0
 16 25  1  0
 16 28  1  0
M  END
$$$$

 Created by Python create_sdf_string function

 28 47  0  0  0  0  0  0  0  0999 V2000
    1.7351  -10.9428   17.4593 C   0  0  0  0  0  0  0  0  0  0  0  0
    1.0753   -6.3882   27.9378 O   0  0  0  0  0  0  0  0  0  0  0  0
    2.4748   -6.4009   26.7798 O   0  0  0  0  0  0  0  0  0  0  0  0
    0.8252   -9.7771   30.9096 S   0  0  0  0  0  0  0  0  0  0  0  0
    2.0046   -9.0942   27.5301 O   0  0  0  0  0  0  0  0  0  0  0  0
    1.1367  -10.4234   17.8605 C   0  0  0  0  0  0  0  0  0  0  0  0
    4.1545   -7.7442   26.6725 C   0  0  0  0  0  0  0  0  0  0  0  0
    2.9949   -8.8266   17.1078 O   0  0  0  0  0  0  0  0  0  0  0  0
    2.8789   -6.9535   15.6827 C   0  0  0  0  0  0  0  0  0  0  0  0
    3.8755   -7.5616   16.8551 C   0  0  0  0  0  0  0  0  0  0  0  0
    0.8490   -8.1518   16.0492 C   0  0  0  0  0  0  0  0  0  0  0  0
   -0.6862  -11.5253   18.0777 C   0  0  0  0  0  0  0  0  0  0  0  0
    5.0322  -10.0208   29.3909 C   0  0  0  0  0  0  0  0  0  0  0  0
    5.6148  -10.6657   30.6097 C   0  0  0  0  0  0  0  0  0  0  0  0
    2.7085   -8.6813   28.6986 C   0  0  0  0  0  0  0  0  0  0  0  0
    4.4596   -7.9952   27.2691 C   0  0  0  0  0  0  0  0  0  0  0  0
    1.6174   -6.8994   16.2988 C   0  0  0  0  0  0  0  0  0  0  0  0
    2.1276  -10.7356   18.3942 C   0  0  0  0  0  0  0  0  0  0  0  0
    1.3891   -5.8209   26.9853 C   0  0  0  0  0  0  0  0  0  0  0  0
    2.0511   -8.9882   16.8805 C   0  0  0  0  0  0  0  0  0  0  0  0
    3.6406   -9.9510   29.8042 C   0  0  0  0  0  0  0  0  0  0  0  0
    0.7687   -6.9606   28.3731 He  0  0  0  0  0  0  0  0  0  0  0  0
    0.2999  -11.0695   17.6488 He  0  0  0  0  0  0  0  0  0  0  0  0
    3.9021   -4.2841   25.2046 He  0  0  0  0  0  0  0  0  0  0  0  0
    1.9034   -9.3195   28.4386 He  0  0  0  0  0  0  0  0  0  0  0  0
    2.4824   -5.9693   27.7886 He  0  0  0  0  0  0  0  0  0  0  0  0
   -0.6947  -11.7359   18.2508 He  0  0  0  0  0  0  0  0  0  0  0  0
    6.3599   -9.0705   29.9583 He  0  0  0  0  0  0  0  0  0  0  0  0
  1  2  1  0
  1  6  4  0
  1 18  4  0
  1 19  1  0
  2  4  1  0
  2  5  3  0
  2  6  3  0
  2 11  1  0
  2 14  4  0
  2 17  4  0
  2 20  3  0
  3  4  1  0
  3  8  1  0
  3 10  4  0
  3 14  2  0
  4  7  1  0
  4 12  2  0
  4 13  4  0
  4 15  2  0
  4 19  4  0
  4 21  4  0
  5 12  4  0
  5 18  3  0
  5 21  2  0
  6 10  3  0
  6 13  1  0
  7 16  1  0
  7 18  3  0
  7 19  3  0
  8 10  4  0
  8 12  3  0
  9 10  4  0
  9 11  4  0
  9 15  1  0
  9 17  4  0
  9 19  3  0
 10 12  2  0
 10 15  1  0
 11 17  4  0
 11 19  4  0
 13 14  2  0
 13 15  4  0
 13 20  3  0
 13 21  1  0
 14 17  3  0
 14 18  1  0
 16 18  3  0
M  END
$$$$

 Created by Python create_sdf_string function

 28 22  0  0  0  0  0  0  0  0999 V2000
    1.4839  -10.9562   17.8739 C   0  0  0  0  0  0  0  0  0  0  0  0
    1.0608   -6.4151   27.9826 C   0  0  0  0  0  0  0  0  0  0  0  0
    2.7054   -6.2615   26.8294 C   0  0  0  0  0  0  0  0  0  0  0  0
    0.9704   -7.3202   28.6509 N   0  0  0  0  0  0  0  0  0  0  0  0
    1.3949   -9.4437   30.0413 O   0  0  0  0  0  0  0  0  0  0  0  0
    2.5194   -8.7531   27.8303 C   0  0  0  0  0  0  0  0  0  0  0  0
   -0.1957  -10.6019   17.7140 C   0  0  0  0  0  0  0  0  0  0  0  0
    0.8620  -10.2449   17.5316 C   0  0  0  0  0  0  0  0  0  0  0  0
    3.9862   -7.6351   26.7231 C   0  0  0  0  0  0  0  0  0  0  0  0
    3.1996   -8.7940   17.0464 C   0  0  0  0  0  0  0  0  0  0  0  0
    2.8759   -6.7539   15.9469 C   0  0  0  0  0  0  0  0  0  0  0  0
    3.7494   -7.6472   16.4942 C   0  0  0  0  0  0  0  0  0  0  0  0
    1.0058   -8.0285   16.3876 C   0  0  0  0  0  0  0  0  0  0  0  0
    3.3896   -5.1729   26.4964 C   0  0  0  0  0  0  0  0  0  0  0  0
   -0.6606  -11.4131   18.1807 C   0  0  0  0  0  0  0  0  0  0  0  0
    5.1165   -9.9329   29.8845 C   0  0  0  0  0  0  0  0  0  0  0  0
    2.8777   -9.0903   28.8157 C   0  0  0  0  0  0  0  0  0  0  0  0
    5.4737  -10.7929   30.5164 O   0  0  0  0  0  0  0  0  0  0  0  0
    2.2495   -6.1535   27.3954 C   0  0  0  0  0  0  0  0  0  0  0  0
    2.1252   -8.6427   28.8272 C   0  0  0  0  0  0  0  0  0  0  0  0
    4.4437   -8.0594   27.2461 C   0  0  0  0  0  0  0  0  0  0  0  0
   -0.5249  -11.8114   18.5099 C   0  0  0  0  0  0  0  0  0  0  0  0
    1.5611   -6.8789   15.8599 C   0  0  0  0  0  0  0  0  0  0  0  0
    1.1615  -11.2082   18.2676 C   0  0  0  0  0  0  0  0  0  0  0  0
    5.9872   -9.2404   29.4734 O   0  0  0  0  0  0  0  0  0  0  0  0
    1.5397   -5.7713   27.0861 C   0  0  0  0  0  0  0  0  0  0  0  0
    1.7802   -8.9586   16.9525 C   0  0  0  0  0  0  0  0  0  0  0  0
    3.6652   -9.9334   29.6276 C   0  0  0  0  0  0  0  0  0  0  0  0
  1  8  4  0
  1 24  4  0
  5 20  2  0
  6 17  1  0
  6 20  1  0
  7  8  4  0
  7 15  4  0
  8 27  1  0
  9 21  1  0
 10 12  4  0
 10 27  4  0
 11 12  4  0
 11 23  4  0
 13 23  4  0
 13 27  4  0
 15 22  4  0
 16 18  2  0
 16 25  1  0
 16 28  1  0
 17 20  1  0
 17 28  1  0
 22 24  4  0
M  END
$$$$

 Created by Python create_sdf_string function

 28 93  0  0  0  0  0  0  0  0999 V2000
    1.4731  -10.7938   18.1392 C   0  0  0  0  0  0  0  0  0  0  0  0
    1.1052   -5.2716   28.3423 C   0  0  0  0  0  0  0  0  0  0  0  0
    2.3282   -5.7205   27.2032 O   0  0  0  0  0  0  0  0  0  0  0  0
    0.4236   -6.5446   27.8985 N   0  0  0  0  0  0  0  0  0  0  0  0
    1.4214  -10.5531   30.5686 O   0  0  0  0  0  0  0  0  0  0  0  0
    4.2712   -7.3151   26.9446 C   0  0  0  0  0  0  0  0  0  0  0  0
    3.1730   -8.5685   16.9656 C   0  0  0  0  0  0  0  0  0  0  0  0
    2.4866   -6.5017   16.2504 C   0  0  0  0  0  0  0  0  0  0  0  0
    3.8273   -8.1222   16.4510 C   0  0  0  0  0  0  0  0  0  0  0  0
    1.6464   -8.0041   16.6223 C   0  0  0  0  0  0  0  0  0  0  0  0
    2.4611   -4.0089   26.6759 Cl  0  0  0  0  0  0  0  0  0  0  0  0
    5.4160   -9.4039   29.3220 C   0  0  0  0  0  0  0  0  0  0  0  0
    1.9762  -11.1589   28.4502 Se  0  0  0  0  0  0  0  0  0  0  0  0
    5.1229  -10.5523   31.0108 O   0  0  0  0  0  0  0  0  0  0  0  0
    1.5533   -5.4480   27.8096 N   0  0  0  0  0  0  0  0  0  0  0  0
    1.7143   -8.2996   28.7004 C   0  0  0  0  0  0  0  0  0  0  0  0
    4.4489   -8.0127   26.8406 C   0  0  0  0  0  0  0  0  0  0  0  0
   -0.0988  -11.7037   18.3848 C   0  0  0  0  0  0  0  0  0  0  0  0
    1.3891   -7.2087   15.7301 C   0  0  0  0  0  0  0  0  0  0  0  0
    0.1717  -11.2445   17.6483 C   0  0  0  0  0  0  0  0  0  0  0  0
    6.1288   -9.2598   29.6629 O   0  0  0  0  0  0  0  0  0  0  0  0
    1.7642   -9.4018   17.1746 C   0  0  0  0  0  0  0  0  0  0  0  0
    3.6658   -9.6041   29.6370 C   0  0  0  0  0  0  0  0  0  0  0  0
    1.2378   -9.2237   27.4225 He  0  0  0  0  0  0  0  0  0  0  0  0
    0.8692   -9.2503   17.6326 He  0  0  0  0  0  0  0  0  0  0  0  0
    1.4172  -10.1471   16.2870 He  0  0  0  0  0  0  0  0  0  0  0  0
   -0.9080  -11.2667   17.9322 He  0  0  0  0  0  0  0  0  0  0  0  0
    2.3140   -5.0847   28.3917 He  0  0  0  0  0  0  0  0  0  0  0  0
  1  4  2  0
  1 15  4  0
  1 17  4  0
  1 20  4  0
  1 23  4  0
  2  4  4  0
  2  6  3  0
  2  7  2  0
  2  8  2  0
  2  9  1  0
  2 12  2  0
  2 17  2  0
  2 21  3  0
  2 23  3  0
  3  6  3  0
  3  7  3  0
  3  8  2  0
  3 10  4  0
  3 11  3  0
  3 12  1  0
  3 14  1  0
  3 16  3  0
  3 17  3  0
  3 18  3  0
  3 23  2  0
  4 10  1  0
  4 13  1  0
  4 15  4  0
  4 16  4  0
  4 17  4  0
  4 19  3  0
  4 23  1  0
  5  8  2  0
  5 12  4  0
  5 13  1  0
  5 18  1  0
  5 20  3  0
  6 11  2  0
  6 12  3  0
  6 15  3  0
  6 17  1  0
  6 22  3  0
  7  9  4  0
  7 10  2  0
  7 13  3  0
  7 15  1  0
  7 22  1  0
  8  9  4  0
  8 13  1  0
  8 20  2  0
  9 11  2  0
  9 15  1  0
  9 20  4  0
  9 21  2  0
  9 22  2  0
 10 15  4  0
 10 19  4  0
 10 21  2  0
 10 22  4  0
 11 12  2  0
 11 13  1  0
 11 14  2  0
 11 15  1  0
 11 16  2  0
 11 18  3  0
 12 13  3  0
 12 14  2  0
 12 18  1  0
 12 19  2  0
 12 21  1  0
 12 23  1  0
 13 14  3  0
 13 15  1  0
 13 17  4  0
 13 18  3  0
 13 21  2  0
 13 22  1  0
 13 23  4  0
 14 20  3  0
 15 17  1  0
 15 18  1  0
 15 19  3  0
 15 20  1  0
 15 21  3  0
 15 22  4  0
 16 22  2  0
 17 23  3  0
 18 23  4  0
 19 21  1  0
 19 22  4  0
 19 23  1  0
 20 22  2  0
 22 23  4  0
M  END
$$$$

 Created by Python create_sdf_string function

 28 25  0  0  0  0  0  0  0  0999 V2000
    1.5821  -10.9098   18.0707 C   0  0  0  0  0  0  0  0  0  0  0  0
    0.7756   -5.5792   27.7873 C   0  0  0  0  0  0  0  0  0  0  0  0
    2.5599   -6.0703   27.3046 C   0  0  0  0  0  0  0  0  0  0  0  0
    0.6423   -6.7369   28.1342 N   0  0  0  0  0  0  0  0  0  0  0  0
    1.9350  -10.4530   29.7957 O   0  0  0  0  0  0  0  0  0  0  0  0
    2.0667   -8.7116   28.0819 C   0  0  0  0  0  0  0  0  0  0  0  0
   -0.0973   -9.8377   17.2975 C   0  0  0  0  0  0  0  0  0  0  0  0
    1.2212   -9.9043   17.3221 C   0  0  0  0  0  0  0  0  0  0  0  0
    4.0055   -7.6566   27.2553 C   0  0  0  0  0  0  0  0  0  0  0  0
    3.3420   -8.7800   16.8583 C   0  0  0  0  0  0  0  0  0  0  0  0
    2.9174   -6.7314   15.9132 C   0  0  0  0  0  0  0  0  0  0  0  0
    3.8118   -7.6162   16.3786 C   0  0  0  0  0  0  0  0  0  0  0  0
    1.2420   -8.1597   16.4464 C   0  0  0  0  0  0  0  0  0  0  0  0
    2.1371   -4.1436   27.0095 C   0  0  0  0  0  0  0  0  0  0  0  0
   -0.8426  -10.9415   18.0850 C   0  0  0  0  0  0  0  0  0  0  0  0
    5.0358   -9.7248   29.7120 C   0  0  0  0  0  0  0  0  0  0  0  0
    2.6753  -10.1194   28.9724 C   0  0  0  0  0  0  0  0  0  0  0  0
    5.0082  -10.5738   30.6100 O   0  0  0  0  0  0  0  0  0  0  0  0
    1.4023   -5.3608   27.5761 C   0  0  0  0  0  0  0  0  0  0  0  0
    1.7102   -7.9395   28.2302 C   0  0  0  0  0  0  0  0  0  0  0  0
    4.1612   -8.4471   27.7063 C   0  0  0  0  0  0  0  0  0  0  0  0
   -0.1282  -11.7055   18.4928 C   0  0  0  0  0  0  0  0  0  0  0  0
    1.5850   -6.9715   16.0239 C   0  0  0  0  0  0  0  0  0  0  0  0
    0.4125  -11.5081   18.3686 C   0  0  0  0  0  0  0  0  0  0  0  0
    6.1160   -9.2463   29.3928 O   0  0  0  0  0  0  0  0  0  0  0  0
    2.4933   -5.6252   27.4398 C   0  0  0  0  0  0  0  0  0  0  0  0
    1.8975   -9.0700   16.8760 C   0  0  0  0  0  0  0  0  0  0  0  0
    3.7572   -9.4581   28.9170 C   0  0  0  0  0  0  0  0  0  0  0  0
  1  8  4  0
  1 24  4  0
  2  4  4  0
  2 19  4  0
  3 26  4  0
  4 20  4  0
  5 17  1  0
  6 20  4  0
  7  8  4  0
  7 15  4  0
  8 27  1  0
  9 21  1  0
 10 12  4  0
 10 27  4  0
 11 12  4  0
 11 23  4  0
 13 23  4  0
 13 27  4  0
 15 22  4  0
 16 18  2  0
 16 25  1  0
 16 28  1  0
 17 28  4  0
 21 28  4  0
 22 24  4  0
M  END
$$$$

 Created by Python create_sdf_string function

 28 53  0  0  0  0  0  0  0  0999 V2000
    1.7441  -10.8243   18.0833 C   0  0  0  0  0  0  0  0  0  0  0  0
    1.4709   -6.9185   27.4402 S   0  0  0  0  0  0  0  0  0  0  0  0
    0.7843   -5.7324   27.8205 N   0  0  0  0  0  0  0  0  0  0  0  0
    1.4887   -8.9087   27.7178 O   0  0  0  0  0  0  0  0  0  0  0  0
    0.2674  -11.0773   18.4058 C   0  0  0  0  0  0  0  0  0  0  0  0
    4.1852   -7.5826   27.7527 C   0  0  0  0  0  0  0  0  0  0  0  0
    3.6954   -8.9833   16.5236 C   0  0  0  0  0  0  0  0  0  0  0  0
    2.4623   -6.8675   15.6952 C   0  0  0  0  0  0  0  0  0  0  0  0
    3.5218   -7.6370   16.6322 C   0  0  0  0  0  0  0  0  0  0  0  0
    0.7609   -8.4439   16.2230 C   0  0  0  0  0  0  0  0  0  0  0  0
    2.6312   -3.4278   28.2527 C   0  0  0  0  0  0  0  0  0  0  0  0
    5.3980  -10.8363   30.6817 S   0  0  0  0  0  0  0  0  0  0  0  0
    0.3183   -5.3288   28.5719 S   0  0  0  0  0  0  0  0  0  0  0  0
    1.5946   -8.3696   28.6548 C   0  0  0  0  0  0  0  0  0  0  0  0
    3.9741   -8.3569   27.7051 C   0  0  0  0  0  0  0  0  0  0  0  0
    1.7722   -7.1840   16.1782 C   0  0  0  0  0  0  0  0  0  0  0  0
    5.7673   -9.3107   29.4071 O   0  0  0  0  0  0  0  0  0  0  0  0
    4.5719   -5.9172   26.8788 S   0  0  0  0  0  0  0  0  0  0  0  0
    1.8967   -8.6976   16.7156 C   0  0  0  0  0  0  0  0  0  0  0  0
    3.6202   -9.4835   28.9538 C   0  0  0  0  0  0  0  0  0  0  0  0
    1.9570   -6.0454   25.6592 He  0  0  0  0  0  0  0  0  0  0  0  0
    3.5565  -11.2648   29.5115 He  0  0  0  0  0  0  0  0  0  0  0  0
    1.3954  -10.7930   16.3139 He  0  0  0  0  0  0  0  0  0  0  0  0
   -0.4900  -11.1984   17.9499 He  0  0  0  0  0  0  0  0  0  0  0  0
    5.0229  -10.1879   29.9128 He  0  0  0  0  0  0  0  0  0  0  0  0
    2.8421   -9.9523   28.9507 He  0  0  0  0  0  0  0  0  0  0  0  0
   -1.8407  -11.0174   19.7028 He  0  0  0  0  0  0  0  0  0  0  0  0
    1.0139  -12.0951   17.8113 He  0  0  0  0  0  0  0  0  0  0  0  0
  1  2  3  0
  1  5  3  0
  1  7  3  0
  1 13  1  0
  1 14  3  0
  1 18  2  0
  1 19  4  0
  2  3  4  0
  2  8  2  0
  2  9  2  0
  2 11  3  0
  2 14  4  0
  2 18  2  0
  2 20  4  0
  3  4  4  0
  3 14  2  0
  3 16  3  0
  3 20  4  0
  4 14  4  0
  4 19  3  0
  5  6  3  0
  5  7  3  0
  5  8  1  0
  5  9  3  0
  5 18  3  0
  6 15  1  0
  6 16  4  0
  7  9  4  0
  7 18  4  0
  7 19  4  0
  8  9  4  0
  8 11  1  0
  8 16  4  0
  8 17  1  0
  8 18  1  0
  9 11  1  0
  9 16  1  0
  9 17  3  0
  9 19  3  0
  9 20  1  0
 10 16  4  0
 10 19  4  0
 11 14  2  0
 11 15  2  0
 11 16  3  0
 11 17  3  0
 12 13  1  0
 13 15  3  0
 13 17  2  0
 14 15  2  0
 15 20  4  0
 16 18  2  0
 17 20  4  0
M  END
$$$$

 Created by Python create_sdf_string function

 28 27  0  0  0  0  0  0  0  0999 V2000
    1.4913  -11.1640   17.9480 C   0  0  0  0  0  0  0  0  0  0  0  0
    1.9877   -7.0742   27.7418 C   0  0  0  0  0  0  0  0  0  0  0  0
    2.2876   -5.4943   26.5820 C   0  0  0  0  0  0  0  0  0  0  0  0
    1.3500   -5.7627   27.4472 N   0  0  0  0  0  0  0  0  0  0  0  0
    2.8959  -11.4847   29.4961 O   0  0  0  0  0  0  0  0  0  0  0  0
    1.5952   -9.1856   28.5014 C   0  0  0  0  0  0  0  0  0  0  0  0
    0.1197  -10.7113   18.3413 C   0  0  0  0  0  0  0  0  0  0  0  0
    1.2001  -10.3671   17.5020 C   0  0  0  0  0  0  0  0  0  0  0  0
    3.7406   -7.3168   27.5282 C   0  0  0  0  0  0  0  0  0  0  0  0
    3.2099   -8.9511   16.7956 C   0  0  0  0  0  0  0  0  0  0  0  0
    2.7224   -6.8309   15.8853 C   0  0  0  0  0  0  0  0  0  0  0  0
    3.6759   -7.7141   16.2808 C   0  0  0  0  0  0  0  0  0  0  0  0
    0.9232   -8.3396   16.3837 C   0  0  0  0  0  0  0  0  0  0  0  0
    2.1351   -4.2495   27.4048 C   0  0  0  0  0  0  0  0  0  0  0  0
   -0.5552  -11.2814   18.1614 C   0  0  0  0  0  0  0  0  0  0  0  0
    5.0300  -10.0069   29.8024 C   0  0  0  0  0  0  0  0  0  0  0  0
    2.6663  -10.1388   29.0295 C   0  0  0  0  0  0  0  0  0  0  0  0
    5.2748  -10.8066   30.6307 O   0  0  0  0  0  0  0  0  0  0  0  0
    0.3420   -5.6236   28.0068 C   0  0  0  0  0  0  0  0  0  0  0  0
    1.5263   -8.2512   28.1933 C   0  0  0  0  0  0  0  0  0  0  0  0
    4.0196   -8.2747   28.0991 C   0  0  0  0  0  0  0  0  0  0  0  0
   -0.7460  -11.2590   18.6111 C   0  0  0  0  0  0  0  0  0  0  0  0
    1.3762   -7.0728   15.9058 C   0  0  0  0  0  0  0  0  0  0  0  0
    0.5792  -12.0539   18.1149 C   0  0  0  0  0  0  0  0  0  0  0  0
    5.9971   -9.3711   29.4485 O   0  0  0  0  0  0  0  0  0  0  0  0
    3.9449   -6.0231   26.9760 C   0  0  0  0  0  0  0  0  0  0  0  0
    1.8507   -9.1744   16.8392 C   0  0  0  0  0  0  0  0  0  0  0  0
    3.8324   -9.4441   28.9241 C   0  0  0  0  0  0  0  0  0  0  0  0
  1  8  4  0
  1 24  4  0
  2  4  1  0
  2  9  4  0
  2 20  4  0
  3  4  1  0
  4 19  2  0
  5 17  1  0
  6 17  4  0
  6 20  4  0
  7  8  4  0
  7 22  4  0
  8 27  1  0
  9 21  4  0
  9 26  1  0
 10 12  4  0
 10 27  4  0
 11 12  4  0
 11 23  4  0
 13 23  4  0
 13 27  4  0
 15 22  4  0
 16 18  2  0
 16 25  1  0
 16 28  1  0
 17 28  4  0
 21 28  4  0
M  END
$$$$

 Created by Python create_sdf_string function

 28 80  0  0  0  0  0  0  0  0999 V2000
    1.5172  -11.4092   18.0875 C   0  0  0  0  0  0  0  0  0  0  0  0
    2.6667   -7.3130   28.0678 C   0  0  0  0  0  0  0  0  0  0  0  0
    2.3806   -5.3355   25.2736 C   0  0  0  0  0  0  0  0  0  0  0  0
    3.0319  -11.4925   29.0879 N   0  0  0  0  0  0  0  0  0  0  0  0
    1.1339  -10.8090   17.6101 C   0  0  0  0  0  0  0  0  0  0  0  0
    4.1459   -7.2468   27.5269 B   0  0  0  0  0  0  0  0  0  0  0  0
    3.1962   -8.3708   16.5847 C   0  0  0  0  0  0  0  0  0  0  0  0
    2.3851   -6.7080   15.8949 C   0  0  0  0  0  0  0  0  0  0  0  0
    3.4193   -7.9270   16.5900 C   0  0  0  0  0  0  0  0  0  0  0  0
    0.7947   -8.6865   16.4791 C   0  0  0  0  0  0  0  0  0  0  0  0
    3.6490   -4.2933   26.9928 F   0  0  0  0  0  0  0  0  0  0  0  0
    4.7516  -10.0483   29.8515 C   0  0  0  0  0  0  0  0  0  0  0  0
    2.3131   -9.3283   27.8690 C   0  0  0  0  0  0  0  0  0  0  0  0
    5.2095  -10.4411   30.6132 O   0  0  0  0  0  0  0  0  0  0  0  0
    0.3375   -4.2544   28.3695 C   0  0  0  0  0  0  0  0  0  0  0  0
    3.9296   -8.3728   28.2809 C   0  0  0  0  0  0  0  0  0  0  0  0
    0.6643  -11.2305   18.2413 C   0  0  0  0  0  0  0  0  0  0  0  0
    1.0863   -7.3321   16.4681 C   0  0  0  0  0  0  0  0  0  0  0  0
    0.0680  -11.7541   17.3565 C   0  0  0  0  0  0  0  0  0  0  0  0
    6.2125   -9.3539   29.4031 O   0  0  0  0  0  0  0  0  0  0  0  0
    5.5745   -6.7169   26.0813 F   0  0  0  0  0  0  0  0  0  0  0  0
    1.7527   -9.5066   16.4538 C   0  0  0  0  0  0  0  0  0  0  0  0
    3.7966   -9.5941   28.6756 O   0  0  0  0  0  0  0  0  0  0  0  0
    0.6253   -6.3744   25.9991 He  0  0  0  0  0  0  0  0  0  0  0  0
    1.8110   -8.7880   29.1584 He  0  0  0  0  0  0  0  0  0  0  0  0
    0.6902   -9.5579   19.2051 He  0  0  0  0  0  0  0  0  0  0  0  0
   -0.8759  -11.5434   17.9405 He  0  0  0  0  0  0  0  0  0  0  0  0
    1.3930   -8.1939   28.0933 He  0  0  0  0  0  0  0  0  0  0  0  0
  1  2  4  0
  1  4  4  0
  1 12  3  0
  1 13  2  0
  1 19  4  0
  1 20  1  0
  1 22  4  0
  2  7  4  0
  2 11  3  0
  2 15  3  0
  2 16  2  0
  3  8  4  0
  3 11  1  0
  3 15  4  0
  3 17  4  0
  3 20  1  0
  3 22  2  0
  3 23  2  0
  4  5  3  0
  4  7  4  0
  4 11  3  0
  4 12  3  0
  4 13  3  0
  4 14  3  0
  4 17  3  0
  4 18  2  0
  4 19  3  0
  4 20  3  0
  4 22  4  0
  5  6  1  0
  5  8  4  0
  5 17  3  0
  5 21  1  0
  6 13  4  0
  6 16  4  0
  6 17  1  0
  6 19  3  0
  6 21  4  0
  7  9  4  0
  7 12  3  0
  7 15  4  0
  7 17  1  0
  7 19  4  0
  7 21  2  0
  7 22  4  0
  7 23  4  0
  8  9  4  0
  8 11  4  0
  8 12  3  0
  8 18  4  0
  9 15  2  0
  9 19  1  0
  9 21  2  0
 10 11  2  0
 10 15  2  0
 10 18  4  0
 10 22  4  0
 11 12  4  0
 11 17  2  0
 11 18  1  0
 11 21  2  0
 12 13  3  0
 12 14  2  0
 12 16  2  0
 12 17  4  0
 12 19  2  0
 12 23  1  0
 13 22  4  0
 14 16  1  0
 14 19  2  0
 15 16  2  0
 15 17  1  0
 15 19  4  0
 16 21  1  0
 16 23  4  0
 17 19  4  0
 18 20  4  0
 19 22  3  0
 19 23  3  0
 20 21  1  0
M  END
$$$$

 Created by Python create_sdf_string function

 28 26  0  0  0  0  0  0  0  0999 V2000
    1.4754  -11.5255   17.8128 C   0  0  0  0  0  0  0  0  0  0  0  0
    2.4670   -7.1866   27.3957 C   0  0  0  0  0  0  0  0  0  0  0  0
    2.3716   -5.3932   26.6826 C   0  0  0  0  0  0  0  0  0  0  0  0
    1.1291   -5.9000   26.7634 C   0  0  0  0  0  0  0  0  0  0  0  0
    2.8575  -11.1348   29.2486 N   0  0  0  0  0  0  0  0  0  0  0  0
    2.0189   -9.5685   28.8051 C   0  0  0  0  0  0  0  0  0  0  0  0
   -0.1014  -10.4797   18.4777 C   0  0  0  0  0  0  0  0  0  0  0  0
    1.1481  -10.3757   17.7387 C   0  0  0  0  0  0  0  0  0  0  0  0
    3.8296   -7.3259   27.4311 C   0  0  0  0  0  0  0  0  0  0  0  0
    3.1027   -8.9445   16.7772 C   0  0  0  0  0  0  0  0  0  0  0  0
    2.4206   -6.8301   16.0396 C   0  0  0  0  0  0  0  0  0  0  0  0
    3.4451   -7.6750   16.3024 C   0  0  0  0  0  0  0  0  0  0  0  0
    0.7960   -8.4695   16.6049 C   0  0  0  0  0  0  0  0  0  0  0  0
    3.2327   -5.0581   26.8071 C   0  0  0  0  0  0  0  0  0  0  0  0
   -0.8057  -11.4874   18.6566 C   0  0  0  0  0  0  0  0  0  0  0  0
    5.0728   -9.9126   29.7358 C   0  0  0  0  0  0  0  0  0  0  0  0
    2.0601   -9.2559   28.5300 C   0  0  0  0  0  0  0  0  0  0  0  0
    5.1845  -10.6750   30.5290 O   0  0  0  0  0  0  0  0  0  0  0  0
    0.7865   -5.0492   27.5233 C   0  0  0  0  0  0  0  0  0  0  0  0
    1.4694   -8.0108   27.9729 C   0  0  0  0  0  0  0  0  0  0  0  0
    4.1422   -8.3724   28.1272 C   0  0  0  0  0  0  0  0  0  0  0  0
   -0.4060  -12.2532   18.3656 C   0  0  0  0  0  0  0  0  0  0  0  0
    1.1085   -7.1835   16.1290 C   0  0  0  0  0  0  0  0  0  0  0  0
    0.4852  -12.4143   18.0148 C   0  0  0  0  0  0  0  0  0  0  0  0
    6.0696   -9.4581   29.4373 O   0  0  0  0  0  0  0  0  0  0  0  0
    4.6895   -6.5427   26.7419 C   0  0  0  0  0  0  0  0  0  0  0  0
    1.7146   -9.2638   16.9903 C   0  0  0  0  0  0  0  0  0  0  0  0
    3.8428   -9.4910   28.8891 C   0  0  0  0  0  0  0  0  0  0  0  0
  1  8  4  0
  1 24  4  0
  2  9  4  0
  2 20  4  0
  3  4  1  0
  3 14  1  0
  4 19  1  0
  6 17  4  0
  7  8  4  0
  7 15  4  0
  8 27  1  0
  9 21  4  0
  9 26  1  0
 10 12  4  0
 10 27  4  0
 11 12  4  0
 11 23  4  0
 13 23  4  0
 13 27  4  0
 15 22  4  0
 16 18  2  0
 16 25  1  0
 16 28  1  0
 17 20  4  0
 21 28  4  0
 22 24  4  0
M  END
$$$$

 Created by Python create_sdf_string function

 28 72  0  0  0  0  0  0  0  0999 V2000
    1.4243  -11.9076   18.6838 C   0  0  0  0  0  0  0  0  0  0  0  0
    3.0835   -6.1751   27.4913 P   0  0  0  0  0  0  0  0  0  0  0  0
    2.5969   -5.6010   26.2238 F   0  0  0  0  0  0  0  0  0  0  0  0
   -0.1104  -10.9422   19.3715 C   0  0  0  0  0  0  0  0  0  0  0  0
    0.1203   -9.7529   18.8763 C   0  0  0  0  0  0  0  0  0  0  0  0
    3.3540   -7.3320   27.1081 C   0  0  0  0  0  0  0  0  0  0  0  0
    2.9553   -6.7723   16.2939 C   0  0  0  0  0  0  0  0  0  0  0  0
    3.5703   -7.7214   16.1192 C   0  0  0  0  0  0  0  0  0  0  0  0
    1.0136   -8.9525   16.3315 C   0  0  0  0  0  0  0  0  0  0  0  0
    3.3668   -4.5264   26.7721 C   0  0  0  0  0  0  0  0  0  0  0  0
   -0.6668  -11.4623   18.8019 C   0  0  0  0  0  0  0  0  0  0  0  0
    4.9731   -9.8875   29.6872 C   0  0  0  0  0  0  0  0  0  0  0  0
    5.3782  -10.5828   30.4117 S   0  0  0  0  0  0  0  0  0  0  0  0
    1.4609   -5.4916   28.3030 N   0  0  0  0  0  0  0  0  0  0  0  0
    1.5395   -7.7742   27.7781 N   0  0  0  0  0  0  0  0  0  0  0  0
    4.3712   -8.7439   28.4001 C   0  0  0  0  0  0  0  0  0  0  0  0
   -1.1832  -12.3619   18.3981 N   0  0  0  0  0  0  0  0  0  0  0  0
    1.3757   -7.1472   16.4223 C   0  0  0  0  0  0  0  0  0  0  0  0
    0.2391  -12.0590   16.0428 Cl  0  0  0  0  0  0  0  0  0  0  0  0
    5.9054   -9.8789   29.5100 O   0  0  0  0  0  0  0  0  0  0  0  0
    4.0531   -6.4046   26.5080 C   0  0  0  0  0  0  0  0  0  0  0  0
    1.6542   -8.9086   17.5622 C   0  0  0  0  0  0  0  0  0  0  0  0
    3.8358   -9.5465   28.4471 C   0  0  0  0  0  0  0  0  0  0  0  0
    0.0570   -5.6605   28.6481 He  0  0  0  0  0  0  0  0  0  0  0  0
    1.6992  -10.4784   30.2143 He  0  0  0  0  0  0  0  0  0  0  0  0
    2.1574   -9.5440   28.4256 He  0  0  0  0  0  0  0  0  0  0  0  0
    3.4131   -8.9805   17.1134 He  0  0  0  0  0  0  0  0  0  0  0  0
    2.3084   -8.8782   28.5610 He  0  0  0  0  0  0  0  0  0  0  0  0
  1  2  3  0
  1  8  2  0
  1  9  1  0
  1 17  4  0
  1 20  2  0
  2  6  4  0
  2  7  3  0
  2  8  4  0
  2 10  2  0
  2 14  3  0
  2 15  4  0
  2 17  4  0
  2 18  1  0
  2 19  1  0
  2 20  3  0
  3  6  4  0
  3 13  3  0
  3 14  1  0
  3 18  3  0
  4  5  4  0
  4  8  1  0
  4  9  1  0
  4 11  4  0
  4 13  4  0
  4 15  1  0
  4 16  3  0
  4 20  3  0
  5 11  4  0
  5 13  1  0
  5 14  1  0
  5 15  3  0
  5 16  3  0
  5 17  2  0
  5 20  4  0
  5 21  4  0
  6  8  4  0
  6  9  3  0
  6 16  4  0
  6 19  1  0
  6 21  4  0
  6 22  4  0
  7  8  4  0
  7 11  3  0
  7 13  4  0
  7 21  4  0
  7 23  1  0
  8 14  4  0
  8 15  3  0
  8 16  4  0
  8 17  1  0
  9 18  4  0
  9 22  4  0
 10 13  4  0
 10 15  4  0
 11 17  4  0
 11 23  2  0
 12 13  2  0
 12 20  1  0
 12 23  1  0
 13 14  3  0
 13 18  3  0
 14 21  1  0
 15 18  1  0
 15 20  4  0
 15 21  1  0
 16 21  3  0
 16 23  4  0
 17 23  1  0
 19 20  4  0
 19 22  4  0
 20 21  4  0
 21 22  4  0
M  END
$$$$

 Created by Python create_sdf_string function

 28 27  0  0  0  0  0  0  0  0999 V2000
    0.5920  -12.0083   17.7084 C   0  0  0  0  0  0  0  0  0  0  0  0
    2.3794   -6.9758   27.6128 C   0  0  0  0  0  0  0  0  0  0  0  0
    3.0139   -5.4073   26.7316 C   0  0  0  0  0  0  0  0  0  0  0  0
    0.2635   -5.8863   28.2061 C   0  0  0  0  0  0  0  0  0  0  0  0
    2.2259  -10.6055   30.0625 O   0  0  0  0  0  0  0  0  0  0  0  0
    1.9144   -9.2768   28.7105 C   0  0  0  0  0  0  0  0  0  0  0  0
   -0.2288  -10.3438   18.8139 C   0  0  0  0  0  0  0  0  0  0  0  0
    0.7518  -10.2687   17.8769 C   0  0  0  0  0  0  0  0  0  0  0  0
    3.5994   -7.3765   27.3689 C   0  0  0  0  0  0  0  0  0  0  0  0
    3.0056   -9.1676   16.9256 C   0  0  0  0  0  0  0  0  0  0  0  0
    2.6572   -7.0938   16.0653 C   0  0  0  0  0  0  0  0  0  0  0  0
    3.5082   -8.0034   16.4416 C   0  0  0  0  0  0  0  0  0  0  0  0
    0.8119   -8.3597   16.8077 C   0  0  0  0  0  0  0  0  0  0  0  0
    2.9863   -5.0067   26.7488 C   0  0  0  0  0  0  0  0  0  0  0  0
   -0.8001  -11.4826   19.0672 C   0  0  0  0  0  0  0  0  0  0  0  0
    5.0349   -9.9642   29.6665 C   0  0  0  0  0  0  0  0  0  0  0  0
    2.4492   -9.1903   28.8132 C   0  0  0  0  0  0  0  0  0  0  0  0
    5.0381  -10.7529   30.3965 O   0  0  0  0  0  0  0  0  0  0  0  0
    1.4553   -5.6198   27.7121 C   0  0  0  0  0  0  0  0  0  0  0  0
    1.5908   -7.7285   28.2744 N   0  0  0  0  0  0  0  0  0  0  0  0
    4.3346   -8.4310   27.9316 C   0  0  0  0  0  0  0  0  0  0  0  0
   -0.5784  -12.4934   18.6169 C   0  0  0  0  0  0  0  0  0  0  0  0
    1.2580   -7.1789   16.2356 C   0  0  0  0  0  0  0  0  0  0  0  0
    0.8486  -11.7592   17.0982 C   0  0  0  0  0  0  0  0  0  0  0  0
    6.0172   -9.6996   29.3707 O   0  0  0  0  0  0  0  0  0  0  0  0
    4.1928   -6.6709   26.5811 C   0  0  0  0  0  0  0  0  0  0  0  0
    1.6037   -9.2803   17.1419 C   0  0  0  0  0  0  0  0  0  0  0  0
    3.9720   -9.3054   28.8800 C   0  0  0  0  0  0  0  0  0  0  0  0
  1 22  4  0
  1 24  4  0
  2  9  4  0
  2 20  4  0
  3 14  4  0
  4 19  1  0
  5 17  1  0
  6 17  4  0
  7  8  4  0
  7 15  4  0
  8 24  4  0
  8 27  1  0
  9 21  4  0
  9 26  4  0
 10 12  4  0
 10 27  4  0
 11 12  4  0
 11 23  4  0
 13 23  4  0
 13 27  4  0
 15 22  4  0
 16 18  2  0
 16 25  1  0
 16 28  1  0
 17 20  4  0
 17 28  4  0
 21 28  4  0
M  END
$$$$

 Created by Python create_sdf_string function

 28 56  0  0  0  0  0  0  0  0999 V2000
    0.2390  -11.9535   17.4178 C   0  0  0  0  0  0  0  0  0  0  0  0
    2.6594   -7.3696   28.1550 C   0  0  0  0  0  0  0  0  0  0  0  0
    2.0946   -5.4007   26.2045 Se  0  0  0  0  0  0  0  0  0  0  0  0
    2.2361   -7.7050   28.8484 C   0  0  0  0  0  0  0  0  0  0  0  0
   -0.7641   -9.8670   18.5124 P   0  0  0  0  0  0  0  0  0  0  0  0
   -0.7148   -9.9846   17.5293 O   0  0  0  0  0  0  0  0  0  0  0  0
    3.7700   -7.4070   27.3554 C   0  0  0  0  0  0  0  0  0  0  0  0
    3.1253   -9.3681   16.7242 C   0  0  0  0  0  0  0  0  0  0  0  0
    2.6353   -7.1236   16.3580 C   0  0  0  0  0  0  0  0  0  0  0  0
    3.4488   -7.9711   15.9790 C   0  0  0  0  0  0  0  0  0  0  0  0
    0.7225   -7.9989   16.9905 C   0  0  0  0  0  0  0  0  0  0  0  0
    2.9530   -5.6055   26.5078 C   0  0  0  0  0  0  0  0  0  0  0  0
   -0.3692  -11.4711   19.1155 C   0  0  0  0  0  0  0  0  0  0  0  0
    5.2601  -10.2357   29.5506 C   0  0  0  0  0  0  0  0  0  0  0  0
    2.1003   -9.2263   28.3436 P   0  0  0  0  0  0  0  0  0  0  0  0
    1.4331   -7.9693   28.0615 N   0  0  0  0  0  0  0  0  0  0  0  0
    4.5638   -8.4346   27.8334 C   0  0  0  0  0  0  0  0  0  0  0  0
    0.9802   -7.5993   16.3602 C   0  0  0  0  0  0  0  0  0  0  0  0
    6.0655  -10.0035   29.7254 O   0  0  0  0  0  0  0  0  0  0  0  0
    1.6786   -9.2372   17.3058 C   0  0  0  0  0  0  0  0  0  0  0  0
    4.1826   -9.0393   28.9386 C   0  0  0  0  0  0  0  0  0  0  0  0
   -0.6377   -5.7425   27.2536 He  0  0  0  0  0  0  0  0  0  0  0  0
    2.6383  -10.4973   30.4872 He  0  0  0  0  0  0  0  0  0  0  0  0
    5.1485  -10.6066   30.2148 He  0  0  0  0  0  0  0  0  0  0  0  0
    1.4154   -5.7516   27.1515 He  0  0  0  0  0  0  0  0  0  0  0  0
   -1.2501  -12.3172   19.6519 He  0  0  0  0  0  0  0  0  0  0  0  0
    0.2858  -12.3171   15.0264 He  0  0  0  0  0  0  0  0  0  0  0  0
    2.3299   -6.4535   27.0154 He  0  0  0  0  0  0  0  0  0  0  0  0
  1  3  1  0
  1  4  2  0
  1  9  2  0
  2  7  4  0
  2  9  3  0
  2 14  2  0
  2 15  2  0
  2 21  4  0
  3  4  3  0
  3 10  2  0
  3 13  1  0
  3 14  3  0
  3 16  3  0
  4  5  2  0
  4 11  2  0
  4 15  2  0
  4 20  4  0
  5  6  1  0
  5  9  3  0
  5 13  4  0
  5 14  4  0
  5 15  3  0
  5 17  1  0
  5 19  1  0
  6  8  3  0
  6 10  1  0
  6 12  1  0
  6 15  3  0
  6 20  1  0
  7 17  4  0
  8 11  4  0
  8 15  3  0
  8 17  3  0
  8 19  3  0
  8 20  4  0
  9 10  4  0
  9 11  3  0
  9 12  1  0
  9 18  4  0
  9 19  2  0
 10 15  2  0
 11 15  3  0
 11 20  4  0
 12 14  3  0
 12 16  2  0
 12 20  2  0
 12 21  4  0
 14 15  2  0
 14 20  1  0
 14 21  1  0
 15 17  4  0
 15 18  4  0
 15 19  2  0
 15 21  4  0
 17 21  4  0
 18 20  1  0
M  END
$$$$

 Created by Python create_sdf_string function

 28 26  0  0  0  0  0  0  0  0999 V2000
   -0.1341  -12.2678   17.2485 C   0  0  0  0  0  0  0  0  0  0  0  0
    2.6139   -7.6601   27.8709 C   0  0  0  0  0  0  0  0  0  0  0  0
    1.7632   -4.9926   26.5894 C   0  0  0  0  0  0  0  0  0  0  0  0
   -0.1648   -5.6475   27.1223 C   0  0  0  0  0  0  0  0  0  0  0  0
    2.5979  -10.2147   30.2109 C   0  0  0  0  0  0  0  0  0  0  0  0
    2.3531   -8.5537   28.6646 C   0  0  0  0  0  0  0  0  0  0  0  0
   -0.3153  -10.4632   18.2490 C   0  0  0  0  0  0  0  0  0  0  0  0
    0.4779  -10.4258   17.6280 C   0  0  0  0  0  0  0  0  0  0  0  0
    4.0240   -7.3858   27.3523 C   0  0  0  0  0  0  0  0  0  0  0  0
    2.7831   -9.3245   16.7058 C   0  0  0  0  0  0  0  0  0  0  0  0
    2.5549   -7.0437   16.0624 C   0  0  0  0  0  0  0  0  0  0  0  0
    3.3602   -8.1261   16.2169 C   0  0  0  0  0  0  0  0  0  0  0  0
    0.6204   -8.2901   16.9326 C   0  0  0  0  0  0  0  0  0  0  0  0
    2.3821   -5.3587   26.6421 C   0  0  0  0  0  0  0  0  0  0  0  0
   -0.6373  -11.3047   19.0359 C   0  0  0  0  0  0  0  0  0  0  0  0
    5.2016  -10.0149   29.7735 C   0  0  0  0  0  0  0  0  0  0  0  0
    2.6000   -9.1445   29.1294 C   0  0  0  0  0  0  0  0  0  0  0  0
    5.0930  -10.9460   30.4273 O   0  0  0  0  0  0  0  0  0  0  0  0
    0.8910   -5.8304   27.2468 C   0  0  0  0  0  0  0  0  0  0  0  0
    1.0549   -7.6228   28.1014 N   0  0  0  0  0  0  0  0  0  0  0  0
    4.8043   -8.3017   28.0189 C   0  0  0  0  0  0  0  0  0  0  0  0
   -0.9254  -12.3987   18.6423 C   0  0  0  0  0  0  0  0  0  0  0  0
    1.2002   -7.0382   16.4292 C   0  0  0  0  0  0  0  0  0  0  0  0
    0.3496  -11.6097   16.8016 C   0  0  0  0  0  0  0  0  0  0  0  0
    6.3653   -9.7786   29.6518 O   0  0  0  0  0  0  0  0  0  0  0  0
    2.0286   -6.3556   27.0934 C   0  0  0  0  0  0  0  0  0  0  0  0
    1.2864   -9.3452   17.0674 C   0  0  0  0  0  0  0  0  0  0  0  0
    4.3328   -9.1612   28.9397 C   0  0  0  0  0  0  0  0  0  0  0  0
  1 22  4  0
  1 24  4  0
  2  6  4  0
  2  9  4  0
  2 20  4  0
  3 14  1  0
  4 19  1  0
  5 17  1  0
  6 17  4  0
  7  8  4  0
  7 15  4  0
  8 27  1  0
  9 21  4  0
 10 12  4  0
 10 27  4  0
 11 12  4  0
 11 23  4  0
 13 23  4  0
 13 27  4  0
 14 26  1  0
 15 22  4  0
 16 18  1  0
 16 25  2  0
 16 28  1  0
 17 28  4  0
 21 28  4  0
M  END
$$$$

 Created by Python create_sdf_string function

 28 52  0  0  0  0  0  0  0  0999 V2000
    1.8837   -4.7736   27.6705 C   0  0  0  0  0  0  0  0  0  0  0  0
    1.0530   -5.2561   27.4396 C   0  0  0  0  0  0  0  0  0  0  0  0
    0.1760  -11.1335   17.7846 F   0  0  0  0  0  0  0  0  0  0  0  0
    4.5029   -7.3391   27.2958 C   0  0  0  0  0  0  0  0  0  0  0  0
    2.8385   -9.5244   16.1783 C   0  0  0  0  0  0  0  0  0  0  0  0
    3.2097   -7.1670   16.3067 C   0  0  0  0  0  0  0  0  0  0  0  0
    3.5201   -8.4548   15.9190 C   0  0  0  0  0  0  0  0  0  0  0  0
    0.4009   -8.5675   16.4850 C   0  0  0  0  0  0  0  0  0  0  0  0
    4.2068   -5.7824   26.4687 N   0  0  0  0  0  0  0  0  0  0  0  0
   -0.6359  -11.1465   19.2038 C   0  0  0  0  0  0  0  0  0  0  0  0
    5.5842   -9.5371   29.8241 C   0  0  0  0  0  0  0  0  0  0  0  0
    0.9494   -6.4857   26.8625 C   0  0  0  0  0  0  0  0  0  0  0  0
    1.3743   -7.3900   28.2575 N   0  0  0  0  0  0  0  0  0  0  0  0
    4.9688   -8.4270   27.9589 C   0  0  0  0  0  0  0  0  0  0  0  0
   -1.1988  -10.8473   18.6469 C   0  0  0  0  0  0  0  0  0  0  0  0
    1.2993   -7.0638   16.0820 C   0  0  0  0  0  0  0  0  0  0  0  0
    1.1910  -12.2340   16.6578 O   0  0  0  0  0  0  0  0  0  0  0  0
    5.8460   -9.6168   29.2605 Br  0  0  0  0  0  0  0  0  0  0  0  0
    1.2578   -9.8312   17.6289 C   0  0  0  0  0  0  0  0  0  0  0  0
    4.5848   -9.0802   28.9278 C   0  0  0  0  0  0  0  0  0  0  0  0
    0.1970  -12.2262   17.7674 He  0  0  0  0  0  0  0  0  0  0  0  0
    2.8164   -8.9070   27.9833 He  0  0  0  0  0  0  0  0  0  0  0  0
    2.9116  -10.4581   28.8862 He  0  0  0  0  0  0  0  0  0  0  0  0
    3.1334   -8.3498   27.3862 He  0  0  0  0  0  0  0  0  0  0  0  0
   -0.2075   -9.7658   17.3742 He  0  0  0  0  0  0  0  0  0  0  0  0
    1.5143   -8.4674   28.3450 He  0  0  0  0  0  0  0  0  0  0  0  0
    4.8403  -10.9785   30.1023 He  0  0  0  0  0  0  0  0  0  0  0  0
    1.7004   -5.2558   27.0420 He  0  0  0  0  0  0  0  0  0  0  0  0
  1  2  1  0
  1  5  1  0
  1  9  2  0
  1 12  1  0
  1 14  1  0
  1 16  4  0
  1 19  4  0
  1 20  4  0
  2  5  3  0
  2  6  3  0
  2  9  2  0
  2 11  4  0
  2 14  4  0
  2 16  2  0
  2 17  3  0
  2 18  3  0
  2 19  3  0
  2 20  2  0
  3  5  4  0
  3  6  4  0
  3 10  4  0
  3 16  1  0
  4 14  4  0
  5  6  4  0
  5  7  4  0
  5 13  1  0
  5 17  2  0
  5 19  3  0
  6  7  4  0
  6 12  1  0
  6 16  4  0
  6 20  2  0
  7 13  2  0
  7 17  4  0
  8 12  4  0
  8 16  4  0
  8 19  4  0
  9 17  2  0
  9 19  4  0
 10 15  1  0
 11 20  3  0
 12 14  4  0
 13 17  1  0
 13 19  3  0
 14 17  1  0
 14 20  4  0
 15 17  1  0
 16 17  2  0
 16 18  2  0
 17 18  4  0
 17 19  2  0
 18 19  1  0
M  END
$$$$

 Created by Python create_sdf_string function

 28 26  0  0  0  0  0  0  0  0999 V2000
    0.0132  -12.4676   17.7891 C   0  0  0  0  0  0  0  0  0  0  0  0
    2.7757   -8.7052   28.1367 C   0  0  0  0  0  0  0  0  0  0  0  0
    1.8611   -5.0411   27.1246 C   0  0  0  0  0  0  0  0  0  0  0  0
    0.8721   -5.2783   27.4012 C   0  0  0  0  0  0  0  0  0  0  0  0
    3.0834   -9.8042   28.8927 C   0  0  0  0  0  0  0  0  0  0  0  0
    3.0826   -7.7588   27.5691 C   0  0  0  0  0  0  0  0  0  0  0  0
    0.6067  -10.6097   17.4673 C   0  0  0  0  0  0  0  0  0  0  0  0
   -0.4856  -10.2167   17.9838 C   0  0  0  0  0  0  0  0  0  0  0  0
    4.5239   -7.4043   27.1506 C   0  0  0  0  0  0  0  0  0  0  0  0
    2.7457   -9.6489   16.5393 C   0  0  0  0  0  0  0  0  0  0  0  0
    2.8186   -7.3294   15.9632 C   0  0  0  0  0  0  0  0  0  0  0  0
    3.4436   -8.5001   16.1007 C   0  0  0  0  0  0  0  0  0  0  0  0
    0.7058   -8.3367   16.7811 C   0  0  0  0  0  0  0  0  0  0  0  0
    3.6571   -5.8928   26.7578 C   0  0  0  0  0  0  0  0  0  0  0  0
   -0.8802  -11.2769   18.9216 C   0  0  0  0  0  0  0  0  0  0  0  0
    5.2665   -9.9085   29.5760 C   0  0  0  0  0  0  0  0  0  0  0  0
    1.4676   -8.6236   28.2417 C   0  0  0  0  0  0  0  0  0  0  0  0
    5.0116  -10.9500   30.1377 O   0  0  0  0  0  0  0  0  0  0  0  0
    1.0996   -6.3716   27.1373 C   0  0  0  0  0  0  0  0  0  0  0  0
    1.5065   -7.7989   27.9164 N   0  0  0  0  0  0  0  0  0  0  0  0
    5.2408   -8.2719   27.8845 C   0  0  0  0  0  0  0  0  0  0  0  0
   -0.9216  -11.5651   18.6117 C   0  0  0  0  0  0  0  0  0  0  0  0
    1.4671   -7.1660   16.2628 C   0  0  0  0  0  0  0  0  0  0  0  0
    1.0622  -11.9493   17.1485 C   0  0  0  0  0  0  0  0  0  0  0  0
    6.4856   -9.6927   29.8001 O   0  0  0  0  0  0  0  0  0  0  0  0
    2.3361   -5.2237   26.7762 C   0  0  0  0  0  0  0  0  0  0  0  0
    1.3491   -9.5544   16.8961 C   0  0  0  0  0  0  0  0  0  0  0  0
    4.6329   -9.2472   28.7366 C   0  0  0  0  0  0  0  0  0  0  0  0
  1 22  4  0
  1 24  4  0
  2  5  4  0
  2  6  4  0
  3  4  1  0
  3 19  1  0
  3 26  1  0
  4 19  1  0
  5 28  4  0
  6  9  4  0
  7  8  4  0
  7 24  4  0
  7 27  1  0
  9 21  4  0
 10 12  4  0
 10 27  4  0
 11 12  4  0
 11 23  4  0
 13 23  4  0
 13 27  4  0
 14 26  1  0
 15 22  4  0
 16 18  2  0
 16 25  2  0
 16 28  1  0
 21 28  4  0
M  END
$$$$

 Created by Python create_sdf_string function

 28 81  0  0  0  0  0  0  0  0999 V2000
    0.0230  -12.3386   17.5355 C   0  0  0  0  0  0  0  0  0  0  0  0
    2.1504   -8.7740   27.7725 C   0  0  0  0  0  0  0  0  0  0  0  0
    0.7552   -3.9325   28.0957 C   0  0  0  0  0  0  0  0  0  0  0  0
    2.6802  -12.0926   30.0836 I   0  0  0  0  0  0  0  0  0  0  0  0
    1.8973   -8.0322   27.0725 C   0  0  0  0  0  0  0  0  0  0  0  0
   -0.7979   -9.5306   17.5389 C   0  0  0  0  0  0  0  0  0  0  0  0
    4.6338   -7.5317   27.0744 C   0  0  0  0  0  0  0  0  0  0  0  0
    2.9513   -9.5783   16.5414 C   0  0  0  0  0  0  0  0  0  0  0  0
    3.1330   -7.4854   15.8776 C   0  0  0  0  0  0  0  0  0  0  0  0
    3.9424   -8.4634   16.0182 C   0  0  0  0  0  0  0  0  0  0  0  0
    1.2663   -8.0215   16.8858 C   0  0  0  0  0  0  0  0  0  0  0  0
    3.0352   -6.0374   27.5124 C   0  0  0  0  0  0  0  0  0  0  0  0
   -1.0885  -11.1026   18.5057 C   0  0  0  0  0  0  0  0  0  0  0  0
    0.5387  -10.0443   28.4832 O   0  0  0  0  0  0  0  0  0  0  0  0
    4.3280  -10.7862   30.2396 N   0  0  0  0  0  0  0  0  0  0  0  0
    1.3092   -5.6382   28.0168 C   0  0  0  0  0  0  0  0  0  0  0  0
    1.5246   -7.5955   27.8001 N   0  0  0  0  0  0  0  0  0  0  0  0
    5.1431   -8.2860   27.8874 C   0  0  0  0  0  0  0  0  0  0  0  0
   -0.4212  -12.7110   17.5026 C   0  0  0  0  0  0  0  0  0  0  0  0
    1.1418   -7.4637   15.8189 C   0  0  0  0  0  0  0  0  0  0  0  0
    1.5131  -11.4621   16.2428 C   0  0  0  0  0  0  0  0  0  0  0  0
    6.1177  -10.1746   29.8141 O   0  0  0  0  0  0  0  0  0  0  0  0
    2.4671   -4.9651   25.4440 C   0  0  0  0  0  0  0  0  0  0  0  0
    1.0078   -9.3849   16.6459 C   0  0  0  0  0  0  0  0  0  0  0  0
    4.5038   -9.5574   28.5913 C   0  0  0  0  0  0  0  0  0  0  0  0
    0.4175   -5.6107   27.9866 He  0  0  0  0  0  0  0  0  0  0  0  0
    1.8826   -8.9195   18.7536 He  0  0  0  0  0  0  0  0  0  0  0  0
    5.5153   -9.7823   29.5999 He  0  0  0  0  0  0  0  0  0  0  0  0
  1  3  2  0
  1  4  2  0
  1  8  1  0
  1 11  3  0
  1 12  3  0
  1 19  4  0
  2  4  1  0
  2  5  4  0
  2  6  1  0
  2 12  1  0
  2 13  2  0
  2 21  1  0
  2 23  3  0
  2 25  1  0
  3  4  3  0
  3 10  3  0
  3 12  3  0
  3 15  3  0
  3 21  3  0
  3 23  4  0
  3 25  4  0
  4 10  3  0
  4 15  2  0
  4 19  1  0
  4 21  2  0
  4 22  2  0
  4 23  4  0
  4 24  3  0
  5  6  2  0
  5 10  2  0
  5 18  2  0
  6  7  3  0
  6 11  4  0
  6 13  3  0
  6 16  2  0
  6 17  3  0
  6 18  3  0
  6 24  1  0
  6 25  1  0
  7 11  2  0
  7 18  1  0
  7 20  2  0
  7 21  4  0
  8 10  4  0
  8 14  3  0
  8 15  4  0
  8 24  4  0
  9 10  4  0
  9 19  3  0
  9 20  4  0
  9 21  4  0
 10 11  3  0
 10 12  3  0
 10 21  4  0
 11 16  4  0
 11 19  3  0
 11 20  4  0
 11 24  3  0
 12 13  3  0
 12 16  3  0
 12 18  1  0
 12 20  4  0
 12 23  1  0
 13 16  2  0
 14 18  1  0
 14 21  2  0
 14 23  2  0
 14 24  2  0
 15 17  4  0
 15 21  3  0
 16 18  4  0
 16 25  1  0
 17 19  4  0
 17 21  3  0
 17 25  3  0
 18 21  1  0
 18 25  4  0
 19 23  2  0
 20 21  1  0
 21 24  1  0
 21 25  1  0
M  END
$$$$

 Created by Python create_sdf_string function

 28 30  0  0  0  0  0  0  0  0999 V2000
    0.2605  -12.4339   17.5343 C   0  0  0  0  0  0  0  0  0  0  0  0
    2.8726   -9.2298   28.4324 C   0  0  0  0  0  0  0  0  0  0  0  0
    1.1238   -4.3377   27.2115 C   0  0  0  0  0  0  0  0  0  0  0  0
    0.5799   -5.5795   27.8881 C   0  0  0  0  0  0  0  0  0  0  0  0
    2.6712  -11.0115   29.6431 C   0  0  0  0  0  0  0  0  0  0  0  0
    2.7415   -7.6105   27.5468 C   0  0  0  0  0  0  0  0  0  0  0  0
    0.8487  -10.1969   17.3112 C   0  0  0  0  0  0  0  0  0  0  0  0
   -0.4805  -10.0467   18.0690 C   0  0  0  0  0  0  0  0  0  0  0  0
    4.3742   -7.5218   27.0092 C   0  0  0  0  0  0  0  0  0  0  0  0
    2.9858   -9.4949   16.5444 C   0  0  0  0  0  0  0  0  0  0  0  0
    3.0518   -7.3406   15.7223 C   0  0  0  0  0  0  0  0  0  0  0  0
    3.6729   -8.4504   15.9754 C   0  0  0  0  0  0  0  0  0  0  0  0
    0.9990   -8.0986   16.5733 C   0  0  0  0  0  0  0  0  0  0  0  0
    2.5803   -6.0554   26.9258 C   0  0  0  0  0  0  0  0  0  0  0  0
   -1.0911  -11.2267   18.4485 C   0  0  0  0  0  0  0  0  0  0  0  0
    4.8729  -10.0394   29.4612 C   0  0  0  0  0  0  0  0  0  0  0  0
    1.8228  -10.0349   28.7416 N   0  0  0  0  0  0  0  0  0  0  0  0
    3.9654  -10.9194   29.8851 N   0  0  0  0  0  0  0  0  0  0  0  0
    0.8264   -6.1741   27.8145 C   0  0  0  0  0  0  0  0  0  0  0  0
    1.8167   -7.7372   27.8887 C   0  0  0  0  0  0  0  0  0  0  0  0
    4.9332   -8.3649   27.7185 C   0  0  0  0  0  0  0  0  0  0  0  0
   -0.5997  -12.3518   18.0356 C   0  0  0  0  0  0  0  0  0  0  0  0
    1.7549   -7.0808   16.0062 C   0  0  0  0  0  0  0  0  0  0  0  0
    1.1370  -11.4340   17.1457 C   0  0  0  0  0  0  0  0  0  0  0  0
    6.0087  -10.0883   29.7581 O   0  0  0  0  0  0  0  0  0  0  0  0
    2.3566   -4.9251   26.7434 C   0  0  0  0  0  0  0  0  0  0  0  0
    1.5399   -9.3137   16.8323 C   0  0  0  0  0  0  0  0  0  0  0  0
    4.1926   -9.2495   28.5537 C   0  0  0  0  0  0  0  0  0  0  0  0
  1 22  4  0
  1 24  4  0
  2  6  4  0
  2 17  4  0
  2 28  4  0
  3  4  4  0
  3 26  4  0
  4 19  4  0
  5 17  4  0
  5 18  1  0
  6  9  4  0
  6 20  4  0
  7  8  4  0
  7 24  4  0
  7 27  1  0
  8 15  4  0
  9 21  4  0
 10 12  4  0
 10 27  4  0
 11 12  4  0
 11 23  4  0
 13 23  4  0
 13 27  4  0
 14 26  4  0
 15 22  4  0
 16 18  4  0
 16 25  2  0
 16 28  1  0
 19 20  4  0
 21 28  4  0
M  END
$$$$

 Created by Python create_sdf_string function

 28 78  0  0  0  0  0  0  0  0999 V2000
    0.2350  -12.4748   17.5774 C   0  0  0  0  0  0  0  0  0  0  0  0
    3.3015   -9.5641   28.1204 C   0  0  0  0  0  0  0  0  0  0  0  0
    1.0548   -4.0547   27.5374 C   0  0  0  0  0  0  0  0  0  0  0  0
   -0.1600   -5.8665   27.8901 C   0  0  0  0  0  0  0  0  0  0  0  0
    3.1495   -7.6417   26.5239 C   0  0  0  0  0  0  0  0  0  0  0  0
    0.2347  -12.0402   17.2865 N   0  0  0  0  0  0  0  0  0  0  0  0
   -1.0997  -10.5660   17.7200 P   0  0  0  0  0  0  0  0  0  0  0  0
    4.1471   -8.0818   26.9902 C   0  0  0  0  0  0  0  0  0  0  0  0
    2.8989   -9.5622   16.2106 C   0  0  0  0  0  0  0  0  0  0  0  0
    3.3979   -7.4604   16.4571 F   0  0  0  0  0  0  0  0  0  0  0  0
    3.6046   -8.6453   16.5811 C   0  0  0  0  0  0  0  0  0  0  0  0
    1.0035   -8.3144   16.5918 C   0  0  0  0  0  0  0  0  0  0  0  0
    3.4309   -5.7319   26.0214 P   0  0  0  0  0  0  0  0  0  0  0  0
   -1.2754  -10.6699   18.0350 C   0  0  0  0  0  0  0  0  0  0  0  0
    4.9267  -10.0208   29.4952 C   0  0  0  0  0  0  0  0  0  0  0  0
    2.5532  -10.2417   29.1859 S   0  0  0  0  0  0  0  0  0  0  0  0
    3.8392  -11.0858   29.9150 N   0  0  0  0  0  0  0  0  0  0  0  0
    0.9347   -5.5612   28.9517 C   0  0  0  0  0  0  0  0  0  0  0  0
    1.8931   -7.9517   27.8409 C   0  0  0  0  0  0  0  0  0  0  0  0
    5.2862   -8.8098   27.8418 C   0  0  0  0  0  0  0  0  0  0  0  0
   -0.8622  -11.5971   18.7671 F   0  0  0  0  0  0  0  0  0  0  0  0
    5.7260   -9.8296   29.2994 O   0  0  0  0  0  0  0  0  0  0  0  0
    1.3122   -9.5276   16.6266 C   0  0  0  0  0  0  0  0  0  0  0  0
    4.0392   -9.5117   28.9259 C   0  0  0  0  0  0  0  0  0  0  0  0
    4.0945  -10.2424   30.2730 He  0  0  0  0  0  0  0  0  0  0  0  0
    1.5984   -7.2902   15.9357 He  0  0  0  0  0  0  0  0  0  0  0  0
    1.5462  -11.1643   16.7403 He  0  0  0  0  0  0  0  0  0  0  0  0
    2.2698   -5.0851   26.3522 He  0  0  0  0  0  0  0  0  0  0  0  0
  1  4  2  0
  1  5  1  0
  1 15  1  0
  1 17  3  0
  1 19  4  0
  2  5  4  0
  2  6  4  0
  2  7  1  0
  2 11  3  0
  2 17  4  0
  2 19  2  0
  2 24  4  0
  3  4  1  0
  3  7  2  0
  3  8  3  0
  3  9  1  0
  3 12  1  0
  3 19  1  0
  3 21  3  0
  4 10  2  0
  4 14  1  0
  4 18  4  0
  4 20  2  0
  5  8  4  0
  5 12  4  0
  5 13  2  0
  5 20  2  0
  5 23  2  0
  6  7  3  0
  6  8  1  0
  6 10  2  0
  6 12  1  0
  6 16  1  0
  6 17  1  0
  6 20  2  0
  6 21  4  0
  6 22  1  0
  6 23  4  0
  6 24  2  0
  7 14  2  0
  7 16  4  0
  7 20  4  0
  8 20  4  0
  8 21  3  0
  8 23  2  0
  9 11  4  0
  9 16  2  0
  9 18  3  0
  9 21  1  0
  9 23  4  0
 10 11  4  0
 10 18  1  0
 10 23  2  0
 10 24  3  0
 11 16  1  0
 11 24  3  0
 12 17  2  0
 12 23  4  0
 13 17  3  0
 13 18  2  0
 13 19  3  0
 13 22  3  0
 13 24  2  0
 14 21  4  0
 15 17  4  0
 15 22  2  0
 15 24  1  0
 16 17  2  0
 16 20  1  0
 16 21  4  0
 16 23  1  0
 17 22  1  0
 18 21  1  0
 18 22  3  0
 18 23  4  0
 20 21  1  0
 20 24  4  0
 21 23  1  0
M  END
$$$$

 Created by Python create_sdf_string function

 28 31  0  0  0  0  0  0  0  0999 V2000
    0.1398  -12.3869   17.8198 C   0  0  0  0  0  0  0  0  0  0  0  0
    3.0724   -9.1155   28.5672 C   0  0  0  0  0  0  0  0  0  0  0  0
    0.8055   -4.5339   27.2442 C   0  0  0  0  0  0  0  0  0  0  0  0
    0.4542   -5.6072   28.0204 C   0  0  0  0  0  0  0  0  0  0  0  0
    3.1735  -10.8826   30.1014 C   0  0  0  0  0  0  0  0  0  0  0  0
    3.1136   -7.2659   27.1256 C   0  0  0  0  0  0  0  0  0  0  0  0
    0.5094  -11.2061   17.3645 N   0  0  0  0  0  0  0  0  0  0  0  0
   -0.7764  -10.3744   17.8104 C   0  0  0  0  0  0  0  0  0  0  0  0
    4.3092   -7.8053   26.6535 C   0  0  0  0  0  0  0  0  0  0  0  0
    2.7917   -9.8057   16.6217 C   0  0  0  0  0  0  0  0  0  0  0  0
    2.9736   -7.4616   16.2603 C   0  0  0  0  0  0  0  0  0  0  0  0
    3.6236   -8.6085   16.3583 C   0  0  0  0  0  0  0  0  0  0  0  0
    0.8746   -8.3670   16.5875 C   0  0  0  0  0  0  0  0  0  0  0  0
    2.6660   -6.1017   26.6409 C   0  0  0  0  0  0  0  0  0  0  0  0
   -1.1997  -10.7938   18.3205 C   0  0  0  0  0  0  0  0  0  0  0  0
    5.0150  -10.0077   29.5108 C   0  0  0  0  0  0  0  0  0  0  0  0
    2.2861   -9.9428   29.3291 N   0  0  0  0  0  0  0  0  0  0  0  0
    4.2188  -10.8347   30.0868 N   0  0  0  0  0  0  0  0  0  0  0  0
    1.1160   -6.7027   28.1641 C   0  0  0  0  0  0  0  0  0  0  0  0
    2.3132   -7.3900   27.7412 C   0  0  0  0  0  0  0  0  0  0  0  0
    5.0336   -8.6803   27.4855 C   0  0  0  0  0  0  0  0  0  0  0  0
   -1.0453  -11.9750   18.5645 C   0  0  0  0  0  0  0  0  0  0  0  0
    1.6566   -7.2197   16.3210 C   0  0  0  0  0  0  0  0  0  0  0  0
    1.1493  -11.6082   17.0620 C   0  0  0  0  0  0  0  0  0  0  0  0
    6.1283  -10.0431   29.7207 O   0  0  0  0  0  0  0  0  0  0  0  0
    1.9943   -5.0017   26.6188 C   0  0  0  0  0  0  0  0  0  0  0  0
    1.5036   -9.6083   16.7373 C   0  0  0  0  0  0  0  0  0  0  0  0
    4.3579   -9.2725   28.5085 C   0  0  0  0  0  0  0  0  0  0  0  0
  1  7  4  0
  1 22  4  0
  1 24  4  0
  2 17  4  0
  2 28  4  0
  3  4  4  0
  3 26  4  0
  4 19  4  0
  5 17  4  0
  5 18  4  0
  6  9  4  0
  6 14  4  0
  6 20  1  0
  7  8  4  0
  7 24  1  0
  8 15  4  0
  9 21  4  0
 10 12  4  0
 10 27  4  0
 11 12  4  0
 11 23  4  0
 13 23  4  0
 13 27  4  0
 14 20  4  0
 14 26  4  0
 15 22  4  0
 16 18  4  0
 16 25  2  0
 16 28  4  0
 19 20  4  0
 21 28  4  0
M  END
$$$$

 Created by Python create_sdf_string function

 28 56  0  0  0  0  0  0  0  0999 V2000
    0.6371  -12.5001   17.8034 C   0  0  0  0  0  0  0  0  0  0  0  0
    0.1280   -5.2561   28.1292 F   0  0  0  0  0  0  0  0  0  0  0  0
    1.1392   -5.5892   27.6475 P   0  0  0  0  0  0  0  0  0  0  0  0
   -0.0794  -10.0859   17.5170 C   0  0  0  0  0  0  0  0  0  0  0  0
    2.4260   -9.5065   16.9217 C   0  0  0  0  0  0  0  0  0  0  0  0
    2.6626   -7.7803   16.6151 C   0  0  0  0  0  0  0  0  0  0  0  0
    3.7419   -8.3524   16.2871 C   0  0  0  0  0  0  0  0  0  0  0  0
    0.7586   -7.9380   16.4570 C   0  0  0  0  0  0  0  0  0  0  0  0
    2.6100   -6.5991   25.6334 C   0  0  0  0  0  0  0  0  0  0  0  0
   -1.6127  -10.6273   18.2542 C   0  0  0  0  0  0  0  0  0  0  0  0
    5.1576  -10.2096   30.2407 C   0  0  0  0  0  0  0  0  0  0  0  0
    4.4930  -11.1619   30.2452 N   0  0  0  0  0  0  0  0  0  0  0  0
    1.9848   -6.6808   27.7053 C   0  0  0  0  0  0  0  0  0  0  0  0
    5.1730   -8.7764   27.4825 C   0  0  0  0  0  0  0  0  0  0  0  0
   -1.2407  -12.6423   19.5323 C   0  0  0  0  0  0  0  0  0  0  0  0
    1.6905   -7.0504   16.2722 N   0  0  0  0  0  0  0  0  0  0  0  0
    6.0514  -10.1763   29.3938 O   0  0  0  0  0  0  0  0  0  0  0  0
    2.7341   -4.6639   27.1663 O   0  0  0  0  0  0  0  0  0  0  0  0
    0.9277   -9.3756   16.5882 C   0  0  0  0  0  0  0  0  0  0  0  0
    4.3473   -9.3267   28.4511 C   0  0  0  0  0  0  0  0  0  0  0  0
    2.8883   -9.7837   28.2934 He  0  0  0  0  0  0  0  0  0  0  0  0
    3.2607  -10.0136   30.0708 He  0  0  0  0  0  0  0  0  0  0  0  0
    4.4173   -7.8354   27.5166 He  0  0  0  0  0  0  0  0  0  0  0  0
    0.9506  -10.6380   17.1244 He  0  0  0  0  0  0  0  0  0  0  0  0
    4.4877   -7.7336   26.9175 He  0  0  0  0  0  0  0  0  0  0  0  0
    1.8572   -9.5310   29.8660 He  0  0  0  0  0  0  0  0  0  0  0  0
    1.9441   -6.9396   27.5457 He  0  0  0  0  0  0  0  0  0  0  0  0
    2.0030  -11.3794   16.8522 He  0  0  0  0  0  0  0  0  0  0  0  0
  1  4  4  0
  1  5  1  0
  1  6  4  0
  1 11  1  0
  2  4  1  0
  2  5  2  0
  2  6  4  0
  2  8  2  0
  2 10  2  0
  2 17  4  0
  2 19  3  0
  3  5  4  0
  3  7  2  0
  3  9  4  0
  3 11  1  0
  3 13  2  0
  3 16  1  0
  3 18  4  0
  4  7  1  0
  4  9  4  0
  4 10  4  0
  4 13  3  0
  4 17  1  0
  4 18  2  0
  5  7  4  0
  5  8  2  0
  5 19  4  0
  6  7  4  0
  6 10  3  0
  6 15  2  0
  6 16  4  0
  6 18  1  0
  7 20  2  0
  8 13  3  0
  8 16  4  0
  8 19  4  0
  9 10  4  0
  9 11  3  0
  9 13  1  0
  9 15  2  0
  9 20  1  0
 10 15  1  0
 10 18  1  0
 11 12  4  0
 11 17  2  0
 11 18  3  0
 11 20  4  0
 12 15  4  0
 13 15  1  0
 13 19  3  0
 14 18  4  0
 14 20  4  0
 15 18  1  0
 15 19  2  0
 18 19  1  0
 18 20  4  0
M  END
$$$$

 Created by Python create_sdf_string function

 28 31  0  0  0  0  0  0  0  0999 V2000
    0.5300  -12.2905   17.9513 C   0  0  0  0  0  0  0  0  0  0  0  0
    3.2498   -8.9251   28.5775 C   0  0  0  0  0  0  0  0  0  0  0  0
    0.5705   -5.6768   27.7885 C   0  0  0  0  0  0  0  0  0  0  0  0
    1.0293   -5.0063   27.3340 C   0  0  0  0  0  0  0  0  0  0  0  0
    2.7657  -10.4969   30.3915 C   0  0  0  0  0  0  0  0  0  0  0  0
    3.2317   -7.8737   27.5459 C   0  0  0  0  0  0  0  0  0  0  0  0
    0.6440  -10.4073   17.3279 C   0  0  0  0  0  0  0  0  0  0  0  0
   -0.4893  -10.3451   17.9187 C   0  0  0  0  0  0  0  0  0  0  0  0
    4.4989   -7.9365   26.8242 N   0  0  0  0  0  0  0  0  0  0  0  0
    2.5929   -9.6195   16.7103 C   0  0  0  0  0  0  0  0  0  0  0  0
    2.9737   -7.2833   16.2492 C   0  0  0  0  0  0  0  0  0  0  0  0
    3.5291   -8.5141   16.4313 C   0  0  0  0  0  0  0  0  0  0  0  0
    0.7590   -8.0533   16.5795 C   0  0  0  0  0  0  0  0  0  0  0  0
    2.8362   -5.8447   26.5415 C   0  0  0  0  0  0  0  0  0  0  0  0
   -0.8974  -10.7458   18.3646 C   0  0  0  0  0  0  0  0  0  0  0  0
    4.9942  -10.1492   29.5789 C   0  0  0  0  0  0  0  0  0  0  0  0
    2.3070   -9.6047   29.5222 N   0  0  0  0  0  0  0  0  0  0  0  0
    4.0469  -10.7437   30.3874 N   0  0  0  0  0  0  0  0  0  0  0  0
    1.4384   -6.9298   27.9688 C   0  0  0  0  0  0  0  0  0  0  0  0
    2.4483   -6.9411   27.3571 C   0  0  0  0  0  0  0  0  0  0  0  0
    5.2824   -8.7833   27.5608 C   0  0  0  0  0  0  0  0  0  0  0  0
   -1.0524  -12.1481   18.7959 C   0  0  0  0  0  0  0  0  0  0  0  0
    1.6447   -7.0315   16.3158 C   0  0  0  0  0  0  0  0  0  0  0  0
    1.2821  -11.5564   17.3328 C   0  0  0  0  0  0  0  0  0  0  0  0
    6.1930  -10.3020   29.7195 O   0  0  0  0  0  0  0  0  0  0  0  0
    2.1173   -4.9119   26.7233 C   0  0  0  0  0  0  0  0  0  0  0  0
    1.3272   -9.3294   16.8393 C   0  0  0  0  0  0  0  0  0  0  0  0
    4.4801   -9.3319   28.6104 C   0  0  0  0  0  0  0  0  0  0  0  0
  1 22  4  0
  1 24  4  0
  2  6  4  0
  2 17  4  0
  2 28  4  0
  3  4  4  0
  3 19  4  0
  4 26  4  0
  5 17  4  0
  5 18  4  0
  6  9  4  0
  6 20  1  0
  7  8  4  0
  7 24  4  0
  7 27  1  0
  8 15  4  0
  9 21  4  0
 10 12  4  0
 10 27  4  0
 11 12  4  0
 11 23  4  0
 13 23  4  0
 13 27  4  0
 14 20  4  0
 14 26  4  0
 15 22  4  0
 16 18  4  0
 16 25  2  0
 16 28  4  0
 19 20  4  0
 21 28  4  0
M  END
$$$$

 Created by Python create_sdf_string function

 28 43  0  0  0  0  0  0  0  0999 V2000
    1.0369  -12.3522   18.2511 C   0  0  0  0  0  0  0  0  0  0  0  0
    1.5001   -3.8433   27.1994 C   0  0  0  0  0  0  0  0  0  0  0  0
   -0.0770  -10.5212   17.1592 B   0  0  0  0  0  0  0  0  0  0  0  0
   -0.6919  -10.4694   18.1232 Cl  0  0  0  0  0  0  0  0  0  0  0  0
    2.5473   -9.5830   16.5644 N   0  0  0  0  0  0  0  0  0  0  0  0
    3.0390   -7.0767   15.9476 C   0  0  0  0  0  0  0  0  0  0  0  0
    2.6946   -5.0811   24.9929 C   0  0  0  0  0  0  0  0  0  0  0  0
   -0.7292  -10.8260   18.5502 Cl  0  0  0  0  0  0  0  0  0  0  0  0
    5.5969  -10.1384   29.6822 C   0  0  0  0  0  0  0  0  0  0  0  0
    4.0888  -10.6382   30.3814 N   0  0  0  0  0  0  0  0  0  0  0  0
    0.9906   -5.7261   27.6126 C   0  0  0  0  0  0  0  0  0  0  0  0
    2.3612   -7.0779   27.3180 C   0  0  0  0  0  0  0  0  0  0  0  0
    5.6602   -8.9415   27.5103 Cl  0  0  0  0  0  0  0  0  0  0  0  0
   -2.0689  -12.2729   20.2144 Cl  0  0  0  0  0  0  0  0  0  0  0  0
    1.7071   -7.1783   16.7071 C   0  0  0  0  0  0  0  0  0  0  0  0
    1.1187  -11.3289   17.0029 C   0  0  0  0  0  0  0  0  0  0  0  0
    5.9965  -10.2418   29.9934 O   0  0  0  0  0  0  0  0  0  0  0  0
    0.8327   -9.0848   16.6244 C   0  0  0  0  0  0  0  0  0  0  0  0
    3.6789  -10.0977   28.8234 He  0  0  0  0  0  0  0  0  0  0  0  0
    0.1393   -7.2815   28.6024 He  0  0  0  0  0  0  0  0  0  0  0  0
    3.2389  -11.2225   30.9128 He  0  0  0  0  0  0  0  0  0  0  0  0
    3.0414   -8.3501   29.1937 He  0  0  0  0  0  0  0  0  0  0  0  0
    4.6968   -8.1569   26.7275 He  0  0  0  0  0  0  0  0  0  0  0  0
    3.7847   -8.1639   16.2806 He  0  0  0  0  0  0  0  0  0  0  0  0
    0.7798   -7.9595   16.2187 He  0  0  0  0  0  0  0  0  0  0  0  0
    4.0596   -9.6753   30.4703 He  0  0  0  0  0  0  0  0  0  0  0  0
    0.9373   -5.0716   25.9102 He  0  0  0  0  0  0  0  0  0  0  0  0
    4.7583   -9.3055   28.7452 He  0  0  0  0  0  0  0  0  0  0  0  0
  1  3  3  0
  1 12  3  0
  1 14  1  0
  2  3  1  0
  2  9  4  0
  2 10  2  0
  2 11  1  0
  2 13  2  0
  2 15  1  0
  2 16  4  0
  3  5  3  0
  3 12  1  0
  3 18  1  0
  4  6  2  0
  4  8  1  0
  4 11  1  0
  4 12  3  0
  4 13  2  0
  4 15  3  0
  4 18  3  0
  5  6  2  0
  5 12  4  0
  5 16  1  0
  5 17  2  0
  5 18  4  0
  6 15  4  0
  7 13  3  0
  7 15  4  0
  8 11  3  0
  8 14  2  0
  9 10  4  0
  9 13  2  0
  9 17  2  0
 10 13  1  0
 10 14  1  0
 10 16  4  0
 11 12  2  0
 11 14  3  0
 11 15  1  0
 11 18  1  0
 12 14  2  0
 13 18  2  0
 14 16  2  0
M  END
$$$$

 Created by Python create_sdf_string function

 28 31  0  0  0  0  0  0  0  0999 V2000
    0.3625  -12.3998   18.2600 C   0  0  0  0  0  0  0  0  0  0  0  0
    3.4616   -9.1294   29.0167 C   0  0  0  0  0  0  0  0  0  0  0  0
    1.4687   -7.1542   28.2172 C   0  0  0  0  0  0  0  0  0  0  0  0
    1.1725   -4.7248   27.3246 C   0  0  0  0  0  0  0  0  0  0  0  0
    3.3849  -10.6747   30.5119 C   0  0  0  0  0  0  0  0  0  0  0  0
    3.0985   -8.0784   28.0333 N   0  0  0  0  0  0  0  0  0  0  0  0
    0.5143  -10.2598   17.4875 C   0  0  0  0  0  0  0  0  0  0  0  0
   -0.6378  -10.2136   18.1318 C   0  0  0  0  0  0  0  0  0  0  0  0
    4.2238   -8.1022   27.0667 C   0  0  0  0  0  0  0  0  0  0  0  0
    2.6399   -9.4799   16.6474 C   0  0  0  0  0  0  0  0  0  0  0  0
    2.9691   -7.1846   16.1114 C   0  0  0  0  0  0  0  0  0  0  0  0
    3.5162   -8.4126   16.2997 C   0  0  0  0  0  0  0  0  0  0  0  0
    0.7395   -7.9766   16.5946 C   0  0  0  0  0  0  0  0  0  0  0  0
    2.5590   -6.0693   26.4669 C   0  0  0  0  0  0  0  0  0  0  0  0
   -1.0609  -10.9874   18.6258 C   0  0  0  0  0  0  0  0  0  0  0  0
    5.3796  -10.0018   29.7449 C   0  0  0  0  0  0  0  0  0  0  0  0
    2.7663   -9.8243   29.8045 N   0  0  0  0  0  0  0  0  0  0  0  0
    4.6107  -10.7117   30.3835 N   0  0  0  0  0  0  0  0  0  0  0  0
    0.9055   -5.9884   28.1798 C   0  0  0  0  0  0  0  0  0  0  0  0
    2.4693   -7.1458   27.5873 C   0  0  0  0  0  0  0  0  0  0  0  0
    5.2892   -8.8018   27.6784 N   0  0  0  0  0  0  0  0  0  0  0  0
   -0.9707  -12.2022   18.8730 C   0  0  0  0  0  0  0  0  0  0  0  0
    1.6286   -6.9188   16.2169 C   0  0  0  0  0  0  0  0  0  0  0  0
    0.8678  -11.4934   17.5435 C   0  0  0  0  0  0  0  0  0  0  0  0
    6.5202  -10.0440   30.0103 O   0  0  0  0  0  0  0  0  0  0  0  0
    1.5184   -5.1478   26.5397 C   0  0  0  0  0  0  0  0  0  0  0  0
    1.2690   -9.2737   16.9035 C   0  0  0  0  0  0  0  0  0  0  0  0
    4.8878   -9.3912   28.8063 C   0  0  0  0  0  0  0  0  0  0  0  0
  1 22  4  0
  1 24  4  0
  2  6  4  0
  2 17  4  0
  2 28  4  0
  3 19  1  0
  3 20  1  0
  4 19  1  0
  4 26  1  0
  5 17  4  0
  5 18  4  0
  6  9  4  0
  6 20  1  0
  7  8  4  0
  7 24  4  0
  7 27  1  0
  8 15  4  0
  9 21  4  0
 10 12  4  0
 10 27  4  0
 11 12  4  0
 11 23  4  0
 13 23  4  0
 13 27  4  0
 14 20  1  0
 14 26  1  0
 15 22  4  0
 16 18  4  0
 16 25  2  0
 16 28  4  0
 21 28  4  0
M  END
$$$$

 Created by Python create_sdf_string function

 28 83  0  0  0  0  0  0  0  0999 V2000
    0.3423  -12.3371   18.1233 C   0  0  0  0  0  0  0  0  0  0  0  0
    3.5349   -8.8922   29.1606 N   0  0  0  0  0  0  0  0  0  0  0  0
    1.3979   -7.5284   27.9320 C   0  0  0  0  0  0  0  0  0  0  0  0
    1.1965   -4.3565   27.7011 C   0  0  0  0  0  0  0  0  0  0  0  0
    2.4758   -6.7563   28.4392 N   0  0  0  0  0  0  0  0  0  0  0  0
   -0.6484  -10.2918   17.1357 O   0  0  0  0  0  0  0  0  0  0  0  0
    4.4266   -7.8794   26.9354 C   0  0  0  0  0  0  0  0  0  0  0  0
    2.3082   -9.5206   16.9368 C   0  0  0  0  0  0  0  0  0  0  0  0
    2.6247   -7.3965   16.1404 C   0  0  0  0  0  0  0  0  0  0  0  0
    3.7107   -8.4725   16.1061 C   0  0  0  0  0  0  0  0  0  0  0  0
    2.8606   -5.6498   25.9895 C   0  0  0  0  0  0  0  0  0  0  0  0
   -1.0646  -10.9097   18.7977 C   0  0  0  0  0  0  0  0  0  0  0  0
    5.5446   -9.5773   29.6546 C   0  0  0  0  0  0  0  0  0  0  0  0
    2.6176   -8.7568   30.0417 N   0  0  0  0  0  0  0  0  0  0  0  0
    4.6593  -10.7768   30.1586 N   0  0  0  0  0  0  0  0  0  0  0  0
    2.3549   -7.3588   27.2018 Cl  0  0  0  0  0  0  0  0  0  0  0  0
    5.3457   -9.2094   27.7118 N   0  0  0  0  0  0  0  0  0  0  0  0
   -1.0901  -12.4214   18.6575 C   0  0  0  0  0  0  0  0  0  0  0  0
    1.3076   -6.8553   16.3472 B   0  0  0  0  0  0  0  0  0  0  0  0
    1.8493  -11.4058   17.4989 C   0  0  0  0  0  0  0  0  0  0  0  0
    6.4969  -10.2232   30.1565 O   0  0  0  0  0  0  0  0  0  0  0  0
    2.3087   -5.6123   27.4534 C   0  0  0  0  0  0  0  0  0  0  0  0
    1.3621   -9.4731   16.4699 C   0  0  0  0  0  0  0  0  0  0  0  0
    4.4868   -9.5910   28.4270 C   0  0  0  0  0  0  0  0  0  0  0  0
    3.0039  -10.6785   30.1966 He  0  0  0  0  0  0  0  0  0  0  0  0
    0.8281  -11.6818   17.4205 He  0  0  0  0  0  0  0  0  0  0  0  0
    0.8218   -8.2103   16.2623 He  0  0  0  0  0  0  0  0  0  0  0  0
    0.8892   -5.6298   27.5899 He  0  0  0  0  0  0  0  0  0  0  0  0
  1  3  3  0
  1  4  2  0
  1  9  3  0
  1 11  2  0
  1 14  3  0
  1 16  2  0
  1 18  4  0
  1 20  4  0
  2  3  1  0
  2  4  3  0
  2  7  3  0
  2 10  2  0
  2 11  2  0
  2 12  3  0
  2 14  1  0
  2 16  4  0
  2 24  4  0
  3  5  2  0
  3  9  2  0
  3 10  2  0
  3 11  1  0
  3 13  4  0
  3 15  3  0
  3 16  2  0
  3 20  2  0
  3 21  1  0
  3 22  4  0
  4 20  4  0
  4 23  4  0
  4 24  3  0
  5  6  4  0
  5  9  4  0
  5 11  4  0
  5 16  4  0
  5 18  1  0
  5 20  3  0
  6  7  1  0
  6  8  2  0
  6 11  3  0
  6 12  2  0
  6 14  1  0
  6 15  2  0
  6 24  4  0
  7 17  4  0
  7 18  3  0
  7 23  3  0
  8 10  4  0
  8 11  2  0
  8 12  1  0
  8 14  3  0
  8 16  1  0
  8 23  4  0
  9 10  4  0
  9 11  4  0
  9 12  1  0
  9 14  3  0
  9 19  4  0
  9 21  2  0
 10 16  2  0
 10 19  1  0
 11 15  4  0
 11 18  3  0
 11 20  1  0
 11 21  1  0
 12 15  2  0
 12 16  2  0
 12 22  1  0
 13 15  2  0
 13 18  4  0
 13 21  2  0
 13 22  1  0
 13 24  4  0
 14 20  1  0
 14 23  2  0
 15 18  1  0
 15 20  1  0
 16 18  1  0
 16 23  3  0
 17 20  3  0
 17 24  4  0
 19 20  1  0
 19 21  4  0
 19 22  2  0
M  END
$$$$

 Created by Python create_sdf_string function

 28 30  0  0  0  0  0  0  0  0999 V2000
    0.4331  -12.7207   18.3782 C   0  0  0  0  0  0  0  0  0  0  0  0
    3.4637   -8.7882   28.8050 C   0  0  0  0  0  0  0  0  0  0  0  0
    1.2336   -6.9129   28.1671 C   0  0  0  0  0  0  0  0  0  0  0  0
    1.1766   -4.6092   27.3097 C   0  0  0  0  0  0  0  0  0  0  0  0
    3.0580  -10.2444   30.5385 C   0  0  0  0  0  0  0  0  0  0  0  0
    2.5022   -7.0675   27.7414 C   0  0  0  0  0  0  0  0  0  0  0  0
    0.6485  -10.4519   17.4437 C   0  0  0  0  0  0  0  0  0  0  0  0
   -0.6552  -10.2805   17.9050 C   0  0  0  0  0  0  0  0  0  0  0  0
    4.6016   -8.0137   26.7458 C   0  0  0  0  0  0  0  0  0  0  0  0
    2.7239   -9.4948   16.6496 C   0  0  0  0  0  0  0  0  0  0  0  0
    2.8025   -7.2532   16.0737 C   0  0  0  0  0  0  0  0  0  0  0  0
    3.4842   -8.3577   16.3054 C   0  0  0  0  0  0  0  0  0  0  0  0
    0.7033   -8.1582   16.4929 C   0  0  0  0  0  0  0  0  0  0  0  0
    2.7297   -5.8586   26.6214 C   0  0  0  0  0  0  0  0  0  0  0  0
   -1.3222  -11.2702   18.5596 C   0  0  0  0  0  0  0  0  0  0  0  0
    5.2614   -9.9908   29.6315 C   0  0  0  0  0  0  0  0  0  0  0  0
    2.5520   -9.3488   29.7741 N   0  0  0  0  0  0  0  0  0  0  0  0
    4.3469  -10.5762   30.4447 N   0  0  0  0  0  0  0  0  0  0  0  0
    0.4856   -5.6343   27.7469 C   0  0  0  0  0  0  0  0  0  0  0  0
    3.2537   -7.7039   27.7334 C   0  0  0  0  0  0  0  0  0  0  0  0
    5.3474   -8.7382   27.5619 N   0  0  0  0  0  0  0  0  0  0  0  0
   -0.7656  -12.3849   18.8224 C   0  0  0  0  0  0  0  0  0  0  0  0
    1.5068   -7.0729   16.1355 C   0  0  0  0  0  0  0  0  0  0  0  0
    1.2279  -11.7340   17.6734 C   0  0  0  0  0  0  0  0  0  0  0  0
    6.4657  -10.0890   29.7623 O   0  0  0  0  0  0  0  0  0  0  0  0
    2.3340   -5.0267   26.9988 C   0  0  0  0  0  0  0  0  0  0  0  0
    1.3842   -9.4099   16.8513 C   0  0  0  0  0  0  0  0  0  0  0  0
    4.6802   -9.2201   28.6815 C   0  0  0  0  0  0  0  0  0  0  0  0
  1 22  4  0
  1 24  4  0
  2 17  4  0
  2 20  4  0
  2 28  4  0
  3  6  1  0
  3 19  1  0
  4 19  1  0
  4 26  1  0
  5 17  4  0
  5 18  4  0
  6 20  4  0
  7  8  4  0
  7 24  4  0
  7 27  1  0
  8 15  4  0
  9 20  4  0
  9 21  4  0
 10 12  4  0
 10 27  4  0
 11 12  4  0
 11 23  4  0
 13 23  4  0
 13 27  4  0
 14 26  1  0
 15 22  4  0
 16 18  4  0
 16 25  2  0
 16 28  4  0
 21 28  4  0
M  END
$$$$

 Created by Python create_sdf_string function

 28 78  0  0  0  0  0  0  0  0999 V2000
    0.2795  -12.8749   18.0915 C   0  0  0  0  0  0  0  0  0  0  0  0
    4.0811   -7.8069   28.8579 C   0  0  0  0  0  0  0  0  0  0  0  0
    2.3882   -5.8491   29.6233 C   0  0  0  0  0  0  0  0  0  0  0  0
    2.1415   -4.0143   27.5199 C   0  0  0  0  0  0  0  0  0  0  0  0
    2.4038  -10.2630   30.6782 F   0  0  0  0  0  0  0  0  0  0  0  0
    1.8048   -8.2902   27.3998 C   0  0  0  0  0  0  0  0  0  0  0  0
   -1.3271  -10.7377   17.0779 C   0  0  0  0  0  0  0  0  0  0  0  0
    4.7957   -8.2335   26.8539 C   0  0  0  0  0  0  0  0  0  0  0  0
    3.0611   -9.5763   16.8176 C   0  0  0  0  0  0  0  0  0  0  0  0
    2.9658   -7.1361   16.1042 C   0  0  0  0  0  0  0  0  0  0  0  0
    3.0735   -8.0018   16.0572 C   0  0  0  0  0  0  0  0  0  0  0  0
    0.1110   -7.8567   16.6639 C   0  0  0  0  0  0  0  0  0  0  0  0
    2.3451   -5.7804   25.5254 F   0  0  0  0  0  0  0  0  0  0  0  0
   -1.4699  -11.2997   18.1426 C   0  0  0  0  0  0  0  0  0  0  0  0
    5.6041   -9.8242   29.3478 C   0  0  0  0  0  0  0  0  0  0  0  0
    2.5054   -8.8906   30.8842 N   0  0  0  0  0  0  0  0  0  0  0  0
    4.5411  -10.5414   30.5112 N   0  0  0  0  0  0  0  0  0  0  0  0
    1.1534   -5.4675   27.7266 O   0  0  0  0  0  0  0  0  0  0  0  0
   -1.6797  -12.4254   18.3319 C   0  0  0  0  0  0  0  0  0  0  0  0
    1.8429   -7.2021   16.0107 C   0  0  0  0  0  0  0  0  0  0  0  0
    1.0685  -11.9664   17.6073 S   0  0  0  0  0  0  0  0  0  0  0  0
    6.9341  -10.0488   30.0104 O   0  0  0  0  0  0  0  0  0  0  0  0
    2.2373   -4.0596   27.4010 C   0  0  0  0  0  0  0  0  0  0  0  0
    1.4688   -9.3006   17.3387 C   0  0  0  0  0  0  0  0  0  0  0  0
    5.1606   -8.9028   28.7532 C   0  0  0  0  0  0  0  0  0  0  0  0
    0.1403  -10.2491   16.3184 He  0  0  0  0  0  0  0  0  0  0  0  0
    3.1613   -7.4393   27.3298 He  0  0  0  0  0  0  0  0  0  0  0  0
    4.9883   -9.4246   27.3581 He  0  0  0  0  0  0  0  0  0  0  0  0
  1 11  4  0
  1 20  4  0
  1 21  1  0
  1 25  4  0
  2  6  3  0
  2  7  2  0
  2 10  2  0
  2 15  4  0
  2 16  1  0
  2 17  2  0
  2 23  1  0
  3  4  2  0
  3  6  1  0
  3 11  3  0
  3 14  3  0
  3 25  4  0
  4 13  4  0
  4 18  1  0
  4 20  2  0
  4 23  4  0
  4 25  1  0
  5  6  2  0
  5  8  2  0
  5 12  1  0
  5 14  3  0
  5 21  4  0
  5 22  1  0
  5 23  3  0
  6  7  3  0
  6 10  3  0
  6 17  2  0
  6 23  2  0
  6 24  1  0
  7 11  2  0
  7 12  4  0
  7 15  3  0
  7 24  4  0
  7 25  4  0
  8 16  1  0
  9 11  4  0
  9 18  2  0
  9 24  4  0
 10 21  3  0
 11 15  1  0
 11 21  3  0
 11 23  1  0
 12 13  1  0
 12 14  2  0
 12 20  4  0
 12 24  4  0
 13 16  3  0
 13 20  3  0
 13 22  1  0
 13 23  1  0
 14 17  1  0
 14 18  3  0
 14 19  2  0
 14 25  3  0
 15 17  4  0
 15 18  4  0
 15 19  1  0
 15 21  1  0
 15 22  2  0
 15 23  2  0
 16 17  3  0
 16 19  4  0
 16 23  4  0
 17 18  1  0
 17 23  4  0
 18 19  1  0
 18 21  3  0
 18 22  2  0
 18 25  1  0
 19 20  1  0
 19 22  1  0
 19 23  2  0
 20 21  1  0
 22 23  1  0
M  END
$$$$

 Created by Python create_sdf_string function

 28 31  0  0  0  0  0  0  0  0999 V2000
    0.0959  -12.8138   18.2530 C   0  0  0  0  0  0  0  0  0  0  0  0
    3.6348   -8.5910   28.8042 C   0  0  0  0  0  0  0  0  0  0  0  0
    2.0276   -5.9481   28.7060 C   0  0  0  0  0  0  0  0  0  0  0  0
    1.7455   -4.4371   27.6598 C   0  0  0  0  0  0  0  0  0  0  0  0
    3.2102   -9.7877   30.8317 C   0  0  0  0  0  0  0  0  0  0  0  0
    2.3620   -6.9779   27.4237 C   0  0  0  0  0  0  0  0  0  0  0  0
    0.4046  -10.5146   17.3745 C   0  0  0  0  0  0  0  0  0  0  0  0
   -0.9866  -10.4896   17.4874 C   0  0  0  0  0  0  0  0  0  0  0  0
    4.4200   -8.0704   26.7381 C   0  0  0  0  0  0  0  0  0  0  0  0
    2.5703   -9.5029   16.7910 C   0  0  0  0  0  0  0  0  0  0  0  0
    2.7533   -7.2650   16.1005 C   0  0  0  0  0  0  0  0  0  0  0  0
    3.3438   -8.3729   16.3887 C   0  0  0  0  0  0  0  0  0  0  0  0
    0.5651   -8.1827   16.5726 C   0  0  0  0  0  0  0  0  0  0  0  0
    2.6008   -5.7720   26.3945 C   0  0  0  0  0  0  0  0  0  0  0  0
   -1.6107  -11.3439   18.0752 C   0  0  0  0  0  0  0  0  0  0  0  0
    5.2782   -9.8441   29.7534 C   0  0  0  0  0  0  0  0  0  0  0  0
    2.8328   -8.9394   29.9370 N   0  0  0  0  0  0  0  0  0  0  0  0
    4.4280  -10.2329   30.6358 N   0  0  0  0  0  0  0  0  0  0  0  0
    1.2825   -5.7982   27.8874 C   0  0  0  0  0  0  0  0  0  0  0  0
    3.3877   -7.7883   27.5785 N   0  0  0  0  0  0  0  0  0  0  0  0
    5.4102   -8.8581   27.5337 N   0  0  0  0  0  0  0  0  0  0  0  0
   -1.1422  -12.5122   18.4525 C   0  0  0  0  0  0  0  0  0  0  0  0
    1.4144   -7.0756   16.1749 C   0  0  0  0  0  0  0  0  0  0  0  0
    0.9296  -11.7487   17.7007 C   0  0  0  0  0  0  0  0  0  0  0  0
    6.4644  -10.1401   29.9227 O   0  0  0  0  0  0  0  0  0  0  0  0
    2.2474   -4.4065   27.0214 C   0  0  0  0  0  0  0  0  0  0  0  0
    1.1820   -9.4450   16.9097 C   0  0  0  0  0  0  0  0  0  0  0  0
    4.8074   -9.1555   28.7603 C   0  0  0  0  0  0  0  0  0  0  0  0
  1 22  4  0
  1 24  4  0
  2 17  4  0
  2 20  4  0
  2 28  4  0
  3  6  1  0
  3 19  1  0
  4 19  1  0
  4 26  1  0
  5 17  4  0
  5 18  4  0
  6 14  1  0
  6 20  1  0
  7  8  4  0
  7 24  4  0
  7 27  1  0
  8 15  4  0
  9 20  4  0
  9 21  4  0
 10 12  4  0
 10 27  4  0
 11 12  4  0
 11 23  4  0
 13 23  4  0
 13 27  4  0
 14 26  1  0
 15 22  4  0
 16 18  4  0
 16 25  2  0
 16 28  4  0
 21 28  4  0
M  END
$$$$

 Created by Python create_sdf_string function

 28 44  0  0  0  0  0  0  0  0999 V2000
    0.0192  -12.9930   18.3824 C   0  0  0  0  0  0  0  0  0  0  0  0
    4.2445   -9.0148   27.1495 C   0  0  0  0  0  0  0  0  0  0  0  0
    0.9595   -6.1093   28.2479 C   0  0  0  0  0  0  0  0  0  0  0  0
    0.6414   -3.8973   27.2565 C   0  0  0  0  0  0  0  0  0  0  0  0
   -1.4221   -9.8496   17.0087 P   0  0  0  0  0  0  0  0  0  0  0  0
    4.7609   -8.0091   26.5644 C   0  0  0  0  0  0  0  0  0  0  0  0
    2.4968   -9.2188   16.7417 C   0  0  0  0  0  0  0  0  0  0  0  0
    2.6996   -6.8635   16.5178 C   0  0  0  0  0  0  0  0  0  0  0  0
    3.5306   -8.4793   16.2849 N   0  0  0  0  0  0  0  0  0  0  0  0
    0.6485   -8.0493   16.7658 C   0  0  0  0  0  0  0  0  0  0  0  0
    2.3348   -5.5704   25.5890 C   0  0  0  0  0  0  0  0  0  0  0  0
   -1.6480  -11.6486   18.2764 C   0  0  0  0  0  0  0  0  0  0  0  0
    1.6749   -4.8229   27.7274 C   0  0  0  0  0  0  0  0  0  0  0  0
    5.1961   -8.8060   27.4851 N   0  0  0  0  0  0  0  0  0  0  0  0
   -0.4876  -12.4049   18.0731 C   0  0  0  0  0  0  0  0  0  0  0  0
    1.3212   -6.8301   15.7427 C   0  0  0  0  0  0  0  0  0  0  0  0
    0.7608  -12.3834   17.9358 C   0  0  0  0  0  0  0  0  0  0  0  0
    6.6899  -10.2477   30.1049 O   0  0  0  0  0  0  0  0  0  0  0  0
    3.1228   -4.4196   26.3425 F   0  0  0  0  0  0  0  0  0  0  0  0
    0.9508   -9.4377   16.9426 C   0  0  0  0  0  0  0  0  0  0  0  0
    4.8491   -8.9080   28.5367 N   0  0  0  0  0  0  0  0  0  0  0  0
    2.1726  -10.9393   31.1634 He  0  0  0  0  0  0  0  0  0  0  0  0
    1.7385   -7.4011   27.7858 He  0  0  0  0  0  0  0  0  0  0  0  0
    0.2007  -11.3069   16.6756 He  0  0  0  0  0  0  0  0  0  0  0  0
    5.1508   -9.6351   29.8102 He  0  0  0  0  0  0  0  0  0  0  0  0
    2.8265   -8.7738   30.2012 He  0  0  0  0  0  0  0  0  0  0  0  0
    4.1231  -10.0356   30.8355 He  0  0  0  0  0  0  0  0  0  0  0  0
    3.6412   -7.8839   27.3629 He  0  0  0  0  0  0  0  0  0  0  0  0
  1  5  2  0
  1  7  3  0
  1 19  1  0
  2  3  2  0
  2  9  1  0
  2 10  4  0
  2 11  3  0
  2 13  2  0
  2 19  2  0
  3  4  2  0
  3  8  1  0
  3 17  2  0
  3 19  2  0
  4  7  3  0
  4 17  4  0
  4 19  1  0
  6 18  1  0
  7  9  4  0
  7 11  2  0
  7 19  3  0
  7 20  4  0
  8  9  4  0
  8 11  3  0
  8 16  4  0
  8 17  1  0
  9 13  1  0
  9 17  1  0
 10 16  4  0
 10 20  4  0
 11 18  1  0
 11 19  1  0
 12 13  4  0
 12 15  1  0
 12 17  3  0
 13 14  4  0
 13 16  1  0
 13 18  4  0
 13 21  3  0
 14 18  3  0
 15 16  3  0
 17 20  4  0
 17 21  1  0
 18 21  1  0
 19 21  2  0
M  END
$$$$

 Created by Python create_sdf_string function

 28 31  0  0  0  0  0  0  0  0999 V2000
    0.1743  -12.7072   18.2029 C   0  0  0  0  0  0  0  0  0  0  0  0
    3.4710   -8.6455   28.5826 C   0  0  0  0  0  0  0  0  0  0  0  0
    1.2345   -6.5393   28.0644 C   0  0  0  0  0  0  0  0  0  0  0  0
    1.2250   -4.3077   27.2599 C   0  0  0  0  0  0  0  0  0  0  0  0
    2.9875   -9.9352   30.7028 C   0  0  0  0  0  0  0  0  0  0  0  0
    2.2689   -6.8570   27.4287 C   0  0  0  0  0  0  0  0  0  0  0  0
    0.2905  -10.4973   17.3584 C   0  0  0  0  0  0  0  0  0  0  0  0
   -1.0285  -10.3439   17.4699 C   0  0  0  0  0  0  0  0  0  0  0  0
    4.6725   -7.9887   26.7446 C   0  0  0  0  0  0  0  0  0  0  0  0
    2.4782   -9.4148   16.7714 C   0  0  0  0  0  0  0  0  0  0  0  0
    2.6919   -7.1206   16.1625 C   0  0  0  0  0  0  0  0  0  0  0  0
    3.2903   -8.3113   16.4634 C   0  0  0  0  0  0  0  0  0  0  0  0
    0.5080   -8.1012   16.5340 C   0  0  0  0  0  0  0  0  0  0  0  0
    2.6842   -6.0382   26.4538 C   0  0  0  0  0  0  0  0  0  0  0  0
   -1.7290  -11.4248   18.1142 C   0  0  0  0  0  0  0  0  0  0  0  0
    5.1309   -9.7912   29.7799 C   0  0  0  0  0  0  0  0  0  0  0  0
    2.6058   -9.0414   29.5797 N   0  0  0  0  0  0  0  0  0  0  0  0
    4.1573  -10.1605   30.6407 N   0  0  0  0  0  0  0  0  0  0  0  0
    0.8316   -5.0385   28.1137 C   0  0  0  0  0  0  0  0  0  0  0  0
    3.3040   -7.6933   27.5191 C   0  0  0  0  0  0  0  0  0  0  0  0
    5.4667   -8.7207   27.6592 N   0  0  0  0  0  0  0  0  0  0  0  0
   -1.0531  -12.5045   18.3919 C   0  0  0  0  0  0  0  0  0  0  0  0
    1.3148   -6.9772   16.2053 C   0  0  0  0  0  0  0  0  0  0  0  0
    0.8926  -11.6399   17.6247 C   0  0  0  0  0  0  0  0  0  0  0  0
    6.3465  -10.0123   29.9101 O   0  0  0  0  0  0  0  0  0  0  0  0
    2.3825   -4.6321   26.5682 C   0  0  0  0  0  0  0  0  0  0  0  0
    1.1004   -9.3554   16.8821 C   0  0  0  0  0  0  0  0  0  0  0  0
    4.6711   -9.1324   28.7486 C   0  0  0  0  0  0  0  0  0  0  0  0
  1 22  4  0
  1 24  4  0
  2 17  4  0
  2 20  4  0
  2 28  4  0
  3  6  1  0
  3 19  1  0
  4 19  1  0
  4 26  1  0
  5 17  4  0
  5 18  4  0
  6 14  1  0
  6 20  1  0
  7  8  4  0
  7 24  4  0
  7 27  1  0
  8 15  4  0
  9 20  4  0
  9 21  4  0
 10 12  4  0
 10 27  4  0
 11 12  4  0
 11 23  4  0
 13 23  4  0
 13 27  4  0
 14 26  1  0
 15 22  4  0
 16 18  4  0
 16 25  2  0
 16 28  4  0
 21 28  4  0
M  END
$$$$

 Created by Python create_sdf_string function

 28 42  0  0  0  0  0  0  0  0999 V2000
    0.1990  -12.5850   17.9840 C   0  0  0  0  0  0  0  0  0  0  0  0
    1.3506   -6.7378   27.6822 C   0  0  0  0  0  0  0  0  0  0  0  0
    2.5960  -10.7064   30.0584 C   0  0  0  0  0  0  0  0  0  0  0  0
    2.2105   -7.2220   27.9811 C   0  0  0  0  0  0  0  0  0  0  0  0
   -0.9864   -9.9971   17.2612 C   0  0  0  0  0  0  0  0  0  0  0  0
    4.5026   -7.2924   26.8727 C   0  0  0  0  0  0  0  0  0  0  0  0
    2.4880   -7.6103   16.3183 C   0  0  0  0  0  0  0  0  0  0  0  0
    3.3433   -8.0596   16.5937 C   0  0  0  0  0  0  0  0  0  0  0  0
    0.5519   -7.9544   16.9131 C   0  0  0  0  0  0  0  0  0  0  0  0
    3.9568   -6.6937   27.2163 C   0  0  0  0  0  0  0  0  0  0  0  0
   -1.9830  -11.4737   18.2786 C   0  0  0  0  0  0  0  0  0  0  0  0
    5.2839   -9.8306   29.7706 C   0  0  0  0  0  0  0  0  0  0  0  0
    1.7501  -10.3998   29.4593 N   0  0  0  0  0  0  0  0  0  0  0  0
    3.6778  -10.3287   30.9205 N   0  0  0  0  0  0  0  0  0  0  0  0
    3.5082   -7.9932   27.6651 C   0  0  0  0  0  0  0  0  0  0  0  0
    5.1387   -8.6457   27.7488 N   0  0  0  0  0  0  0  0  0  0  0  0
   -0.8790  -12.1074   18.4876 C   0  0  0  0  0  0  0  0  0  0  0  0
    1.0901   -7.0483   16.5656 C   0  0  0  0  0  0  0  0  0  0  0  0
    6.0155   -9.7875   29.9244 O   0  0  0  0  0  0  0  0  0  0  0  0
    0.8668   -8.7595   16.7537 C   0  0  0  0  0  0  0  0  0  0  0  0
    4.9075   -9.1444   28.4298 O   0  0  0  0  0  0  0  0  0  0  0  0
    2.8773   -8.4471   28.8474 He  0  0  0  0  0  0  0  0  0  0  0  0
    1.0629   -3.9081   27.2664 He  0  0  0  0  0  0  0  0  0  0  0  0
   -0.7209  -10.4496   19.1982 He  0  0  0  0  0  0  0  0  0  0  0  0
    2.2048   -9.6100   16.1903 He  0  0  0  0  0  0  0  0  0  0  0  0
    1.4015   -4.6067   27.5526 He  0  0  0  0  0  0  0  0  0  0  0  0
    0.1734  -11.7445   17.7161 He  0  0  0  0  0  0  0  0  0  0  0  0
    2.8892   -5.4734   26.7271 He  0  0  0  0  0  0  0  0  0  0  0  0
  1 13  3  0
  2  7  2  0
  2 20  3  0
  3  8  1  0
  3 10  2  0
  3 11  2  0
  3 13  4  0
  3 14  1  0
  3 17  4  0
  4 10  4  0
  4 12  1  0
  5  7  2  0
  5  9  4  0
  5 14  3  0
  5 16  3  0
  5 17  2  0
  5 20  1  0
  5 21  1  0
  6 13  4  0
  6 16  4  0
  6 17  2  0
  7  8  4  0
  7 10  4  0
  7 13  4  0
  7 16  1  0
  7 17  2  0
  7 19  2  0
  9 20  4  0
 10 15  4  0
 10 18  1  0
 10 20  3  0
 10 21  3  0
 12 14  4  0
 12 15  1  0
 12 17  2  0
 12 20  4  0
 13 14  3  0
 13 20  4  0
 14 17  1  0
 15 17  1  0
 16 17  3  0
 16 21  4  0
M  END
$$$$

 Created by Python create_sdf_string function

 28 31  0  0  0  0  0  0  0  0999 V2000
   -0.0614  -12.7033   18.1100 C   0  0  0  0  0  0  0  0  0  0  0  0
    3.1142   -8.7710   28.6141 C   0  0  0  0  0  0  0  0  0  0  0  0
    0.8811   -6.1886   27.8627 C   0  0  0  0  0  0  0  0  0  0  0  0
    1.2776   -4.1376   26.9342 C   0  0  0  0  0  0  0  0  0  0  0  0
    2.7368  -10.4716   30.2509 C   0  0  0  0  0  0  0  0  0  0  0  0
    1.4269   -7.2230   28.0955 C   0  0  0  0  0  0  0  0  0  0  0  0
    0.1336  -10.2798   17.5897 C   0  0  0  0  0  0  0  0  0  0  0  0
   -1.0360  -10.1716   18.3378 C   0  0  0  0  0  0  0  0  0  0  0  0
    4.7896   -7.3725   26.9525 C   0  0  0  0  0  0  0  0  0  0  0  0
    2.2320   -9.4151   16.6365 C   0  0  0  0  0  0  0  0  0  0  0  0
    2.4197   -7.1562   16.1880 C   0  0  0  0  0  0  0  0  0  0  0  0
    3.0172   -8.3273   16.2468 C   0  0  0  0  0  0  0  0  0  0  0  0
    0.3076   -8.0084   16.9019 C   0  0  0  0  0  0  0  0  0  0  0  0
    3.5447   -6.8236   27.1687 C   0  0  0  0  0  0  0  0  0  0  0  0
   -1.6464  -11.3292   18.8017 C   0  0  0  0  0  0  0  0  0  0  0  0
    4.9537   -9.8708   29.6893 C   0  0  0  0  0  0  0  0  0  0  0  0
    2.2011   -9.6008   29.3137 N   0  0  0  0  0  0  0  0  0  0  0  0
    4.0178  -10.5805   30.4156 N   0  0  0  0  0  0  0  0  0  0  0  0
    1.5480   -4.9620   27.1143 C   0  0  0  0  0  0  0  0  0  0  0  0
    2.7174   -7.6144   27.9389 C   0  0  0  0  0  0  0  0  0  0  0  0
    5.2459   -8.4069   27.7960 N   0  0  0  0  0  0  0  0  0  0  0  0
   -1.1449  -12.4657   18.7555 C   0  0  0  0  0  0  0  0  0  0  0  0
    1.1101   -6.8926   16.4557 C   0  0  0  0  0  0  0  0  0  0  0  0
    0.5926  -11.5961   17.4954 C   0  0  0  0  0  0  0  0  0  0  0  0
    6.1030  -10.0139   29.8669 O   0  0  0  0  0  0  0  0  0  0  0  0
    2.9908   -5.5047   26.7771 C   0  0  0  0  0  0  0  0  0  0  0  0
    0.8631   -9.2610   17.0604 C   0  0  0  0  0  0  0  0  0  0  0  0
    4.4155   -9.0433   28.7273 C   0  0  0  0  0  0  0  0  0  0  0  0
  1 22  4  0
  1 24  4  0
  2 17  4  0
  2 20  4  0
  2 28  4  0
  3  6  1  0
  3 19  1  0
  4 19  1  0
  5 17  4  0
  5 18  4  0
  6 20  1  0
  7  8  4  0
  7 24  4  0
  7 27  1  0
  8 15  4  0
  9 14  4  0
  9 21  4  0
 10 12  4  0
 10 27  4  0
 11 12  4  0
 11 23  4  0
 13 23  4  0
 13 27  4  0
 14 20  4  0
 14 26  1  0
 15 22  4  0
 16 18  4  0
 16 25  2  0
 16 28  4  0
 19 26  4  0
 21 28  4  0
M  END
$$$$

 Created by Python create_sdf_string function

 28 36  0  0  0  0  0  0  0  0999 V2000
   -0.2960  -12.4606   17.9677 C   0  0  0  0  0  0  0  0  0  0  0  0
    1.7170   -7.6870   29.1112 C   0  0  0  0  0  0  0  0  0  0  0  0
    1.0994   -5.9515   27.4298 C   0  0  0  0  0  0  0  0  0  0  0  0
    3.0549   -9.6776   30.8572 N   0  0  0  0  0  0  0  0  0  0  0  0
    1.5675  -11.0216   17.7771 O   0  0  0  0  0  0  0  0  0  0  0  0
   -0.0204  -10.7645   17.4542 F   0  0  0  0  0  0  0  0  0  0  0  0
    4.8478   -7.6379   27.0956 C   0  0  0  0  0  0  0  0  0  0  0  0
    2.7105   -9.1156   16.9376 C   0  0  0  0  0  0  0  0  0  0  0  0
    2.2353   -7.7816   16.1095 C   0  0  0  0  0  0  0  0  0  0  0  0
    2.8848   -8.9709   16.3247 C   0  0  0  0  0  0  0  0  0  0  0  0
   -1.5406  -11.3898   18.8428 C   0  0  0  0  0  0  0  0  0  0  0  0
    4.8874  -10.1179   29.6778 C   0  0  0  0  0  0  0  0  0  0  0  0
    4.3016  -10.3694   30.4507 N   0  0  0  0  0  0  0  0  0  0  0  0
    2.6869   -7.6335   27.9042 C   0  0  0  0  0  0  0  0  0  0  0  0
   -0.0151  -12.6298   18.2202 C   0  0  0  0  0  0  0  0  0  0  0  0
    1.2301   -7.0550   16.5241 C   0  0  0  0  0  0  0  0  0  0  0  0
    6.1551  -10.0997   29.8793 O   0  0  0  0  0  0  0  0  0  0  0  0
    2.7241   -5.8800   26.5449 C   0  0  0  0  0  0  0  0  0  0  0  0
    1.1251   -9.2548   17.1362 C   0  0  0  0  0  0  0  0  0  0  0  0
    4.1972   -9.1794   28.7630 C   0  0  0  0  0  0  0  0  0  0  0  0
    0.5808   -3.0615   24.9659 He  0  0  0  0  0  0  0  0  0  0  0  0
    2.0358   -8.0034   27.8869 He  0  0  0  0  0  0  0  0  0  0  0  0
    0.1688   -7.9305   16.7798 He  0  0  0  0  0  0  0  0  0  0  0  0
    3.8803   -6.3126   27.3267 He  0  0  0  0  0  0  0  0  0  0  0  0
    2.0124  -10.2179   29.3034 He  0  0  0  0  0  0  0  0  0  0  0  0
    1.0217   -4.2786   26.6682 He  0  0  0  0  0  0  0  0  0  0  0  0
    5.0976   -8.6020   28.1537 He  0  0  0  0  0  0  0  0  0  0  0  0
    0.4889  -10.8746   17.9008 He  0  0  0  0  0  0  0  0  0  0  0  0
  1  9  4  0
  1 15  4  0
  2  5  3  0
  2  9  2  0
  2 10  1  0
  2 20  4  0
  3  4  3  0
  3 19  4  0
  4 15  1  0
  4 18  2  0
  4 19  2  0
  5  6  2  0
  5 16  3  0
  5 19  1  0
  5 20  1  0
  6  8  3  0
  6 16  1  0
  6 19  2  0
  6 20  3  0
  7 16  1  0
  7 19  4  0
  8 10  4  0
  8 13  3  0
  8 19  4  0
  8 20  2  0
  9 10  4  0
  9 16  4  0
  9 18  1  0
 10 16  4  0
 10 19  3  0
 12 13  4  0
 12 17  2  0
 12 20  4  0
 13 15  1  0
 15 16  2  0
 15 20  4  0
M  END
$$$$

 Created by Python create_sdf_string function

 28 29  0  0  0  0  0  0  0  0999 V2000
   -0.2276  -12.7262   18.1986 C   0  0  0  0  0  0  0  0  0  0  0  0
    2.8501   -8.6218   28.8921 C   0  0  0  0  0  0  0  0  0  0  0  0
    0.8955   -5.8125   27.2428 C   0  0  0  0  0  0  0  0  0  0  0  0
    0.8315   -3.8000   26.4820 N   0  0  0  0  0  0  0  0  0  0  0  0
    2.7336  -10.0261   30.5824 N   0  0  0  0  0  0  0  0  0  0  0  0
    1.4138   -7.1238   27.9602 C   0  0  0  0  0  0  0  0  0  0  0  0
    1.0438  -11.0015   17.9119 C   0  0  0  0  0  0  0  0  0  0  0  0
   -0.3900  -10.8745   18.1345 C   0  0  0  0  0  0  0  0  0  0  0  0
    4.6999   -7.3581   27.0755 C   0  0  0  0  0  0  0  0  0  0  0  0
    2.3201   -9.5873   16.9219 C   0  0  0  0  0  0  0  0  0  0  0  0
    2.4613   -7.3794   16.0035 C   0  0  0  0  0  0  0  0  0  0  0  0
    3.1177   -8.4975   16.2749 C   0  0  0  0  0  0  0  0  0  0  0  0
    0.3675   -8.1846   16.8678 C   0  0  0  0  0  0  0  0  0  0  0  0
    3.4628   -6.7121   27.0734 C   0  0  0  0  0  0  0  0  0  0  0  0
   -1.4804  -11.5438   18.7803 C   0  0  0  0  0  0  0  0  0  0  0  0
    4.9038   -9.9502   29.7590 C   0  0  0  0  0  0  0  0  0  0  0  0
    2.2868   -9.3887   29.7096 N   0  0  0  0  0  0  0  0  0  0  0  0
    4.0638  -10.3847   30.6406 N   0  0  0  0  0  0  0  0  0  0  0  0
    1.4398   -4.8722   26.7431 C   0  0  0  0  0  0  0  0  0  0  0  0
    2.6420   -7.4351   27.8613 C   0  0  0  0  0  0  0  0  0  0  0  0
    4.8928   -8.4729   27.8798 N   0  0  0  0  0  0  0  0  0  0  0  0
   -0.6269  -12.7015   18.3895 C   0  0  0  0  0  0  0  0  0  0  0  0
    1.1560   -7.1455   16.2560 C   0  0  0  0  0  0  0  0  0  0  0  0
    0.1781  -11.3256   18.0836 C   0  0  0  0  0  0  0  0  0  0  0  0
    6.0483  -10.2072   29.6927 O   0  0  0  0  0  0  0  0  0  0  0  0
    2.8271   -5.4105   26.6392 C   0  0  0  0  0  0  0  0  0  0  0  0
    1.0656   -9.3502   17.1488 C   0  0  0  0  0  0  0  0  0  0  0  0
    4.1828   -9.0132   28.8524 C   0  0  0  0  0  0  0  0  0  0  0  0
  1 22  4  0
  2 17  4  0
  2 20  4  0
  2 28  4  0
  3  6  1  0
  3 19  1  0
  4 19  1  0
  5 17  4  0
  5 18  4  0
  6 20  1  0
  7 24  4  0
  8 15  4  0
  8 24  4  0
  9 14  4  0
  9 21  4  0
 10 12  4  0
 10 27  4  0
 11 12  4  0
 11 23  4  0
 13 23  4  0
 13 27  4  0
 14 20  4  0
 14 26  1  0
 15 22  4  0
 16 18  4  0
 16 25  2  0
 16 28  4  0
 19 26  1  0
 21 28  4  0
M  END
$$$$

 Created by Python create_sdf_string function

 28 80  0  0  0  0  0  0  0  0999 V2000
   -0.6641  -12.4309   18.5357 C   0  0  0  0  0  0  0  0  0  0  0  0
    0.5194   -5.9234   27.2837 C   0  0  0  0  0  0  0  0  0  0  0  0
    1.6229   -4.3178   26.6183 F   0  0  0  0  0  0  0  0  0  0  0  0
    2.5358  -10.7916   29.6680 Cl  0  0  0  0  0  0  0  0  0  0  0  0
    0.0548  -11.0576   17.8739 O   0  0  0  0  0  0  0  0  0  0  0  0
   -1.0637  -11.0064   17.9276 C   0  0  0  0  0  0  0  0  0  0  0  0
    1.9171   -9.5262   16.6054 C   0  0  0  0  0  0  0  0  0  0  0  0
    2.3890   -7.0954   15.9649 C   0  0  0  0  0  0  0  0  0  0  0  0
    2.6694   -8.7212   16.1288 C   0  0  0  0  0  0  0  0  0  0  0  0
    0.3043   -7.9744   16.8664 C   0  0  0  0  0  0  0  0  0  0  0  0
    3.1956   -7.1099   26.6807 C   0  0  0  0  0  0  0  0  0  0  0  0
   -1.6346  -11.8295   18.6917 C   0  0  0  0  0  0  0  0  0  0  0  0
    5.2686  -10.0916   29.6014 C   0  0  0  0  0  0  0  0  0  0  0  0
    2.1546   -8.9834   29.5197 C   0  0  0  0  0  0  0  0  0  0  0  0
    4.1899   -9.9956   30.7577 N   0  0  0  0  0  0  0  0  0  0  0  0
    1.1149   -5.0356   27.0745 C   0  0  0  0  0  0  0  0  0  0  0  0
    2.4175   -7.6891   27.8813 C   0  0  0  0  0  0  0  0  0  0  0  0
    4.6037   -8.3132   27.7201 N   0  0  0  0  0  0  0  0  0  0  0  0
   -1.6399  -12.6517   18.5975 O   0  0  0  0  0  0  0  0  0  0  0  0
    0.8828   -7.4461   16.5708 F   0  0  0  0  0  0  0  0  0  0  0  0
    0.5371  -12.0175   16.9952 F   0  0  0  0  0  0  0  0  0  0  0  0
    5.9678  -10.3222   29.8883 O   0  0  0  0  0  0  0  0  0  0  0  0
    3.2288   -5.4527   27.0172 N   0  0  0  0  0  0  0  0  0  0  0  0
    1.0051   -9.2063   17.1736 C   0  0  0  0  0  0  0  0  0  0  0  0
    3.7125   -8.9329   28.7981 N   0  0  0  0  0  0  0  0  0  0  0  0
    2.6144   -8.4840   27.9717 He  0  0  0  0  0  0  0  0  0  0  0  0
    1.6317   -7.6423   27.5177 He  0  0  0  0  0  0  0  0  0  0  0  0
    4.7838   -7.3471   27.2557 He  0  0  0  0  0  0  0  0  0  0  0  0
  1  4  1  0
  1  5  4  0
  1  9  2  0
  1 19  4  0
  1 21  3  0
  2  3  2  0
  2  6  3  0
  2  8  4  0
  2 16  1  0
  2 18  1  0
  2 21  1  0
  2 25  2  0
  3  7  2  0
  3  8  4  0
  3 10  2  0
  3 15  2  0
  3 16  1  0
  3 21  1  0
  4  8  3  0
  4 15  2  0
  4 20  1  0
  4 21  4  0
  4 25  2  0
  5 15  1  0
  5 19  2  0
  5 20  4  0
  5 21  4  0
  5 22  3  0
  6  7  1  0
  6  9  2  0
  6 10  1  0
  6 13  1  0
  6 15  3  0
  6 19  3  0
  6 21  4  0
  6 23  3  0
  6 25  3  0
  7  9  4  0
  7 16  2  0
  7 19  1  0
  7 21  2  0
  7 23  4  0
  7 24  4  0
  8  9  4  0
  8 13  1  0
  8 19  4  0
  8 20  4  0
  9 21  2  0
 10 16  3  0
 10 20  4  0
 10 24  4  0
 11 14  1  0
 11 19  1  0
 11 23  1  0
 11 25  1  0
 12 17  2  0
 12 19  2  0
 12 25  2  0
 13 15  4  0
 13 16  1  0
 13 22  2  0
 13 25  4  0
 14 16  3  0
 14 17  4  0
 14 20  1  0
 14 21  2  0
 14 22  4  0
 14 24  3  0
 14 25  1  0
 15 21  2  0
 15 23  4  0
 16 19  2  0
 17 23  2  0
 19 20  3  0
 19 24  4  0
 20 21  4  0
 21 23  1  0
 21 24  2  0
 21 25  1  0
 23 25  1  0
M  END
$$$$

 Created by Python create_sdf_string function

 28 31  0  0  0  0  0  0  0  0999 V2000
   -0.1552  -12.8519   18.4556 C   0  0  0  0  0  0  0  0  0  0  0  0
    3.3282   -8.6677   28.4455 C   0  0  0  0  0  0  0  0  0  0  0  0
    0.5304   -6.0899   27.2199 C   0  0  0  0  0  0  0  0  0  0  0  0
    1.4253   -4.1139   26.7213 C   0  0  0  0  0  0  0  0  0  0  0  0
    2.4374  -10.3362   30.1803 C   0  0  0  0  0  0  0  0  0  0  0  0
    1.1664   -7.3354   27.8170 C   0  0  0  0  0  0  0  0  0  0  0  0
    0.5782  -11.8192   17.8311 C   0  0  0  0  0  0  0  0  0  0  0  0
   -1.3558  -10.5159   18.0361 C   0  0  0  0  0  0  0  0  0  0  0  0
    4.4546   -7.3058   26.9229 C   0  0  0  0  0  0  0  0  0  0  0  0
    2.0941   -9.6681   16.6078 C   0  0  0  0  0  0  0  0  0  0  0  0
    2.1478   -7.3468   16.0675 C   0  0  0  0  0  0  0  0  0  0  0  0
    2.7874   -8.5061   16.1086 C   0  0  0  0  0  0  0  0  0  0  0  0
    0.1317   -8.2962   16.9297 C   0  0  0  0  0  0  0  0  0  0  0  0
    3.2461   -6.7109   26.9885 C   0  0  0  0  0  0  0  0  0  0  0  0
   -2.0244  -11.6398   18.6037 C   0  0  0  0  0  0  0  0  0  0  0  0
    4.9816   -9.9962   29.8021 C   0  0  0  0  0  0  0  0  0  0  0  0
    2.3639   -9.6768   29.5099 C   0  0  0  0  0  0  0  0  0  0  0  0
    4.1017  -10.6618   30.5102 N   0  0  0  0  0  0  0  0  0  0  0  0
    1.1946   -4.9252   26.9235 C   0  0  0  0  0  0  0  0  0  0  0  0
    2.3493   -7.7337   27.8366 C   0  0  0  0  0  0  0  0  0  0  0  0
    4.6173   -8.3220   27.8514 N   0  0  0  0  0  0  0  0  0  0  0  0
   -1.3301  -12.6627   18.8559 C   0  0  0  0  0  0  0  0  0  0  0  0
    0.8967   -7.2019   16.4608 C   0  0  0  0  0  0  0  0  0  0  0  0
    0.0484  -10.6130   17.5905 C   0  0  0  0  0  0  0  0  0  0  0  0
    6.1136  -10.0733   29.8270 O   0  0  0  0  0  0  0  0  0  0  0  0
    2.8636   -5.6615   26.6492 C   0  0  0  0  0  0  0  0  0  0  0  0
    0.7142   -9.5781   17.0844 C   0  0  0  0  0  0  0  0  0  0  0  0
    3.9576   -9.5768   29.2824 N   0  0  0  0  0  0  0  0  0  0  0  0
  1  7  4  0
  1 22  4  0
  2 17  4  0
  2 20  4  0
  2 21  4  0
  2 28  4  0
  3  6  1  0
  3 19  1  0
  4 19  1  0
  5 17  4  0
  5 18  4  0
  6 20  4  0
  7 24  4  0
  8 15  4  0
  8 24  4  0
  9 14  4  0
  9 21  4  0
 10 12  4  0
 10 27  4  0
 11 12  4  0
 11 23  4  0
 13 23  4  0
 13 27  4  0
 14 20  4  0
 14 26  1  0
 15 22  4  0
 16 18  4  0
 16 25  2  0
 16 28  4  0
 19 26  1  0
 24 27  1  0
M  END
$$$$

 Created by Python create_sdf_string function

 28 59  0  0  0  0  0  0  0  0999 V2000
   -0.3867  -13.1240   18.4202 C   0  0  0  0  0  0  0  0  0  0  0  0
    2.5914   -7.8942   28.7038 B   0  0  0  0  0  0  0  0  0  0  0  0
    1.1689   -6.2648   26.9521 P   0  0  0  0  0  0  0  0  0  0  0  0
    2.5678  -10.0298   29.9356 C   0  0  0  0  0  0  0  0  0  0  0  0
    2.3302   -6.9504   28.1890 N   0  0  0  0  0  0  0  0  0  0  0  0
    0.5441  -11.1516   17.5259 C   0  0  0  0  0  0  0  0  0  0  0  0
   -1.1378   -9.9062   17.5254 O   0  0  0  0  0  0  0  0  0  0  0  0
    2.2073   -9.7204   16.4089 N   0  0  0  0  0  0  0  0  0  0  0  0
    2.0073   -7.7404   16.0106 C   0  0  0  0  0  0  0  0  0  0  0  0
    2.8621   -8.3207   16.1470 C   0  0  0  0  0  0  0  0  0  0  0  0
   -0.0053   -8.4275   16.4859 C   0  0  0  0  0  0  0  0  0  0  0  0
   -2.1094  -11.4199   18.8075 C   0  0  0  0  0  0  0  0  0  0  0  0
    4.6416  -10.1232   29.9764 C   0  0  0  0  0  0  0  0  0  0  0  0
    3.4609   -9.1905   29.5816 C   0  0  0  0  0  0  0  0  0  0  0  0
    0.5122   -4.5354   26.7494 C   0  0  0  0  0  0  0  0  0  0  0  0
    2.2407   -7.4976   27.8417 C   0  0  0  0  0  0  0  0  0  0  0  0
    5.0106   -8.4590   27.4792 N   0  0  0  0  0  0  0  0  0  0  0  0
   -1.1147  -12.8893   18.9255 C   0  0  0  0  0  0  0  0  0  0  0  0
    0.7799   -7.3042   16.3868 C   0  0  0  0  0  0  0  0  0  0  0  0
   -0.4509   -9.7009   17.8758 F   0  0  0  0  0  0  0  0  0  0  0  0
    6.2143  -10.2778   30.1045 O   0  0  0  0  0  0  0  0  0  0  0  0
    4.0978   -9.7479   29.2997 N   0  0  0  0  0  0  0  0  0  0  0  0
    1.3840   -4.2026   26.5593 He  0  0  0  0  0  0  0  0  0  0  0  0
    3.9792   -7.2920   26.9356 He  0  0  0  0  0  0  0  0  0  0  0  0
    4.0854   -6.3930   27.0185 He  0  0  0  0  0  0  0  0  0  0  0  0
    4.0553  -10.7064   30.6202 He  0  0  0  0  0  0  0  0  0  0  0  0
    3.2674   -5.8556   26.7060 He  0  0  0  0  0  0  0  0  0  0  0  0
    0.6495   -9.7963   16.9217 He  0  0  0  0  0  0  0  0  0  0  0  0
  1  2  4  0
  1  3  1  0
  1  6  4  0
  1 15  2  0
  1 18  4  0
  2  3  2  0
  2  8  4  0
  2 11  3  0
  2 12  2  0
  2 16  4  0
  2 18  4  0
  2 19  1  0
  2 22  4  0
  3  8  4  0
  3  9  4  0
  3 11  1  0
  3 20  2  0
  3 21  3  0
  3 22  2  0
  4  7  3  0
  4 14  4  0
  5  7  1  0
  5 10  2  0
  5 17  2  0
  5 21  3  0
  6  7  1  0
  6  9  3  0
  6 12  1  0
  6 20  4  0
  7  8  4  0
  7  9  4  0
  7 11  3  0
  7 12  4  0
  7 20  4  0
  7 22  2  0
  8 10  4  0
  8 13  1  0
  8 14  1  0
  8 15  1  0
  8 16  4  0
  9 10  4  0
  9 15  4  0
  9 19  4  0
  9 20  3  0
  9 21  1  0
 10 12  3  0
 10 14  3  0
 10 16  3  0
 11 13  1  0
 12 18  4  0
 13 14  2  0
 13 20  2  0
 13 21  2  0
 13 22  4  0
 14 15  3  0
 14 18  2  0
 14 20  4  0
 15 19  1  0
 18 22  4  0
M  END
$$$$

 Created by Python create_sdf_string function

 28 31  0  0  0  0  0  0  0  0999 V2000
   -0.2216  -12.8297   18.4864 C   0  0  0  0  0  0  0  0  0  0  0  0
    3.3371   -8.5812   28.7410 C   0  0  0  0  0  0  0  0  0  0  0  0
    0.6863   -6.2126   27.3750 C   0  0  0  0  0  0  0  0  0  0  0  0
    1.8966   -4.4919   26.5999 C   0  0  0  0  0  0  0  0  0  0  0  0
    2.5690  -10.1544   30.3499 C   0  0  0  0  0  0  0  0  0  0  0  0
    2.0358   -7.0446   27.9534 N   0  0  0  0  0  0  0  0  0  0  0  0
    0.4904  -11.7382   17.8358 C   0  0  0  0  0  0  0  0  0  0  0  0
   -1.3342  -10.2929   18.1065 C   0  0  0  0  0  0  0  0  0  0  0  0
    4.5604   -7.4645   26.9559 C   0  0  0  0  0  0  0  0  0  0  0  0
    2.0312   -9.6122   16.6977 C   0  0  0  0  0  0  0  0  0  0  0  0
    2.1407   -7.4230   15.9684 C   0  0  0  0  0  0  0  0  0  0  0  0
    2.7279   -8.5747   16.1647 C   0  0  0  0  0  0  0  0  0  0  0  0
    0.0442   -8.2467   16.6926 C   0  0  0  0  0  0  0  0  0  0  0  0
    3.3478   -6.7037   27.0781 C   0  0  0  0  0  0  0  0  0  0  0  0
   -2.0206  -11.4252   18.6804 C   0  0  0  0  0  0  0  0  0  0  0  0
    4.7773  -10.1013   29.8978 C   0  0  0  0  0  0  0  0  0  0  0  0
    2.4769   -9.2078   29.5731 C   0  0  0  0  0  0  0  0  0  0  0  0
    3.7802  -10.6578   30.6395 C   0  0  0  0  0  0  0  0  0  0  0  0
    0.6984   -4.9744   26.8675 C   0  0  0  0  0  0  0  0  0  0  0  0
    2.6265   -7.3115   27.9108 C   0  0  0  0  0  0  0  0  0  0  0  0
    5.0438   -8.5167   27.8580 N   0  0  0  0  0  0  0  0  0  0  0  0
   -1.4161  -12.5768   18.8790 C   0  0  0  0  0  0  0  0  0  0  0  0
    0.8361   -7.2262   16.1360 C   0  0  0  0  0  0  0  0  0  0  0  0
   -0.0453  -10.4979   17.6290 C   0  0  0  0  0  0  0  0  0  0  0  0
    5.9973  -10.3266   30.0275 O   0  0  0  0  0  0  0  0  0  0  0  0
    2.9528   -5.3483   26.6086 C   0  0  0  0  0  0  0  0  0  0  0  0
    0.6624   -9.4575   17.0040 C   0  0  0  0  0  0  0  0  0  0  0  0
    4.3705   -9.1389   28.9026 N   0  0  0  0  0  0  0  0  0  0  0  0
  1  7  4  0
  1 22  4  0
  2 17  4  0
  2 20  4  0
  2 28  4  0
  3  6  1  0
  3 19  1  0
  4 19  1  0
  4 26  1  0
  5 17  4  0
  5 18  4  0
  6 20  1  0
  7 24  4  0
  8 15  4  0
  8 24  4  0
  9 14  4  0
  9 21  4  0
 10 12  4  0
 10 27  4  0
 11 12  4  0
 11 23  4  0
 13 23  4  0
 13 27  4  0
 14 20  4  0
 14 26  1  0
 15 22  4  0
 16 18  4  0
 16 25  2  0
 16 28  4  0
 21 28  4  0
 24 27  1  0
M  END
$$$$

 Created by Python create_sdf_string function

 28 71  0  0  0  0  0  0  0  0999 V2000
   -0.5499  -12.9708   18.8347 C   0  0  0  0  0  0  0  0  0  0  0  0
    2.7998   -8.2718   29.0784 C   0  0  0  0  0  0  0  0  0  0  0  0
    1.1367   -5.8225   27.5817 C   0  0  0  0  0  0  0  0  0  0  0  0
    2.4907   -4.1302   27.1651 Se  0  0  0  0  0  0  0  0  0  0  0  0
    2.7911   -9.6911   30.2674 C   0  0  0  0  0  0  0  0  0  0  0  0
    1.1042   -6.0120   27.4878 N   0  0  0  0  0  0  0  0  0  0  0  0
    1.0842  -10.8854   17.0860 N   0  0  0  0  0  0  0  0  0  0  0  0
   -1.6490   -9.7764   18.1125 C   0  0  0  0  0  0  0  0  0  0  0  0
    4.7447   -7.7231   26.9942 C   0  0  0  0  0  0  0  0  0  0  0  0
    2.1444   -7.3150   15.9905 C   0  0  0  0  0  0  0  0  0  0  0  0
    2.6742   -8.4457   15.8629 C   0  0  0  0  0  0  0  0  0  0  0  0
    0.1162   -9.0262   16.6136 C   0  0  0  0  0  0  0  0  0  0  0  0
    4.0160   -6.2919   26.8277 C   0  0  0  0  0  0  0  0  0  0  0  0
   -2.0794  -11.5029   18.8677 C   0  0  0  0  0  0  0  0  0  0  0  0
    4.9642  -10.0786   30.0095 C   0  0  0  0  0  0  0  0  0  0  0  0
    2.4207   -9.9022   29.6662 C   0  0  0  0  0  0  0  0  0  0  0  0
    4.1312  -10.5986   30.8601 C   0  0  0  0  0  0  0  0  0  0  0  0
   -0.0951   -5.5211   27.4721 B   0  0  0  0  0  0  0  0  0  0  0  0
    2.8774   -7.3620   27.7514 C   0  0  0  0  0  0  0  0  0  0  0  0
    5.1218   -8.9299   27.6608 N   0  0  0  0  0  0  0  0  0  0  0  0
   -1.2925  -13.0391   17.8568 O   0  0  0  0  0  0  0  0  0  0  0  0
    1.0365   -7.3632   16.0111 C   0  0  0  0  0  0  0  0  0  0  0  0
   -0.4434  -11.1918   17.0795 F   0  0  0  0  0  0  0  0  0  0  0  0
    5.9862  -10.6520   30.1208 O   0  0  0  0  0  0  0  0  0  0  0  0
    2.0706   -5.2478   26.7895 C   0  0  0  0  0  0  0  0  0  0  0  0
    0.5503   -9.3852   17.1384 C   0  0  0  0  0  0  0  0  0  0  0  0
    4.4043   -9.2311   29.2744 N   0  0  0  0  0  0  0  0  0  0  0  0
    2.5962   -9.5625   16.8562 He  0  0  0  0  0  0  0  0  0  0  0  0
  1  7  4  0
  1  9  2  0
  1 13  2  0
  1 21  1  0
  2 16  4  0
  2 23  4  0
  2 27  4  0
  3  6  1  0
  3  7  1  0
  3  8  1  0
  3 12  1  0
  3 17  3  0
  3 18  1  0
  3 19  3  0
  4  8  3  0
  4 10  1  0
  4 18  3  0
  4 21  1  0
  4 22  4  0
  4 24  3  0
  4 25  1  0
  5 12  1  0
  5 17  4  0
  5 19  3  0
  5 25  3  0
  5 26  4  0
  5 27  4  0
  6 12  2  0
  6 13  3  0
  6 16  3  0
  6 26  2  0
  7  8  4  0
  7 19  1  0
  7 21  3  0
  8  9  3  0
  8 10  4  0
  8 12  2  0
  8 14  4  0
  8 16  1  0
  8 17  2  0
  8 18  3  0
  8 23  4  0
  8 25  1  0
  9 13  4  0
  9 20  4  0
  9 21  4  0
  9 25  4  0
 10 11  4  0
 10 21  1  0
 10 22  4  0
 10 23  3  0
 11 16  1  0
 12 22  4  0
 12 26  4  0
 13 19  4  0
 13 20  1  0
 13 21  3  0
 13 25  1  0
 13 26  1  0
 14 21  4  0
 15 17  4  0
 15 24  2  0
 16 20  1  0
 16 23  3  0
 17 22  3  0
 20 21  3  0
 20 26  2  0
 20 27  4  0
 22 23  2  0
 23 25  3  0
 23 26  1  0
M  END
$$$$

 Created by Python create_sdf_string function

 28 31  0  0  0  0  0  0  0  0999 V2000
   -0.1838  -12.8375   18.3194 C   0  0  0  0  0  0  0  0  0  0  0  0
    3.1226   -8.5447   28.8014 C   0  0  0  0  0  0  0  0  0  0  0  0
    0.9931   -5.9788   27.5248 C   0  0  0  0  0  0  0  0  0  0  0  0
    2.2102   -4.2039   26.9339 O   0  0  0  0  0  0  0  0  0  0  0  0
    2.5287  -10.0267   30.5648 C   0  0  0  0  0  0  0  0  0  0  0  0
    1.6788   -6.5584   27.8140 N   0  0  0  0  0  0  0  0  0  0  0  0
    0.5554  -11.7451   17.8139 C   0  0  0  0  0  0  0  0  0  0  0  0
   -1.4233  -10.3802   18.0080 C   0  0  0  0  0  0  0  0  0  0  0  0
    5.0066   -7.6903   26.9555 C   0  0  0  0  0  0  0  0  0  0  0  0
    2.1299   -9.5962   16.7729 C   0  0  0  0  0  0  0  0  0  0  0  0
    2.1360   -7.4140   15.8864 C   0  0  0  0  0  0  0  0  0  0  0  0
    2.8398   -8.5234   16.2358 C   0  0  0  0  0  0  0  0  0  0  0  0
    0.0694   -8.3905   16.6132 C   0  0  0  0  0  0  0  0  0  0  0  0
    3.9029   -7.0312   27.0747 C   0  0  0  0  0  0  0  0  0  0  0  0
   -2.0429  -11.5722   18.5212 C   0  0  0  0  0  0  0  0  0  0  0  0
    4.8038  -10.0098   29.8234 C   0  0  0  0  0  0  0  0  0  0  0  0
    2.2173   -9.0883   29.7149 C   0  0  0  0  0  0  0  0  0  0  0  0
    3.7744  -10.4536   30.7160 N   0  0  0  0  0  0  0  0  0  0  0  0
   -0.0421   -5.3450   27.2978 C   0  0  0  0  0  0  0  0  0  0  0  0
    2.9494   -7.4253   27.8919 C   0  0  0  0  0  0  0  0  0  0  0  0
    5.2619   -8.5734   27.8505 N   0  0  0  0  0  0  0  0  0  0  0  0
   -1.3666  -12.7177   18.6725 C   0  0  0  0  0  0  0  0  0  0  0  0
    0.8051   -7.2966   16.0301 C   0  0  0  0  0  0  0  0  0  0  0  0
   -0.0309  -10.5581   17.6327 C   0  0  0  0  0  0  0  0  0  0  0  0
    5.9887  -10.3524   29.8994 O   0  0  0  0  0  0  0  0  0  0  0  0
    2.1875   -5.0835   26.7828 C   0  0  0  0  0  0  0  0  0  0  0  0
    0.7267   -9.4893   16.9778 C   0  0  0  0  0  0  0  0  0  0  0  0
    4.3852   -9.0578   28.8254 N   0  0  0  0  0  0  0  0  0  0  0  0
  1  7  4  0
  1 22  4  0
  2 17  4  0
  2 20  4  0
  2 28  4  0
  3  6  1  0
  3 19  1  0
  3 26  1  0
  4 26  1  0
  5 17  4  0
  5 18  4  0
  6 20  1  0
  6 26  1  0
  7 24  4  0
  8 15  4  0
  8 24  4  0
  9 14  4  0
  9 21  4  0
 10 12  4  0
 10 27  4  0
 11 12  4  0
 11 23  4  0
 13 23  4  0
 13 27  4  0
 14 20  4  0
 15 22  4  0
 16 18  4  0
 16 25  2  0
 16 28  4  0
 21 28  4  0
 24 27  1  0
M  END
$$$$

 Created by Python create_sdf_string function

 28 62  0  0  0  0  0  0  0  0999 V2000
    0.0476  -12.5089   18.8999 C   0  0  0  0  0  0  0  0  0  0  0  0
    2.8368   -8.8225   29.5174 C   0  0  0  0  0  0  0  0  0  0  0  0
    0.6322   -7.5668   27.8451 C   0  0  0  0  0  0  0  0  0  0  0  0
    1.7429   -4.4212   26.1305 O   0  0  0  0  0  0  0  0  0  0  0  0
    2.4974  -10.0513   30.5191 F   0  0  0  0  0  0  0  0  0  0  0  0
    2.1224   -6.1792   27.1242 N   0  0  0  0  0  0  0  0  0  0  0  0
    1.7092  -11.8802   17.0212 C   0  0  0  0  0  0  0  0  0  0  0  0
   -1.0230  -10.5030   17.9133 C   0  0  0  0  0  0  0  0  0  0  0  0
    4.6218   -8.0381   27.2889 C   0  0  0  0  0  0  0  0  0  0  0  0
    1.8460   -9.8326   16.5142 C   0  0  0  0  0  0  0  0  0  0  0  0
    1.9697   -7.3925   15.7188 P   0  0  0  0  0  0  0  0  0  0  0  0
    0.2468   -8.3269   16.3059 C   0  0  0  0  0  0  0  0  0  0  0  0
    5.1251   -6.8292   27.5574 C   0  0  0  0  0  0  0  0  0  0  0  0
   -2.0526  -12.1576   18.3604 C   0  0  0  0  0  0  0  0  0  0  0  0
    5.2799   -9.6305   30.1391 C   0  0  0  0  0  0  0  0  0  0  0  0
    1.2472   -8.8703   29.0924 C   0  0  0  0  0  0  0  0  0  0  0  0
    3.6571  -10.4835   30.6490 N   0  0  0  0  0  0  0  0  0  0  0  0
   -0.6248   -5.2566   27.7114 C   0  0  0  0  0  0  0  0  0  0  0  0
    4.8135   -8.4682   27.6858 N   0  0  0  0  0  0  0  0  0  0  0  0
    0.5889   -7.4545   15.8477 C   0  0  0  0  0  0  0  0  0  0  0  0
    5.7608  -10.2530   29.8617 O   0  0  0  0  0  0  0  0  0  0  0  0
    3.0780   -5.1186   27.5220 C   0  0  0  0  0  0  0  0  0  0  0  0
    0.5458   -9.2785   16.9994 C   0  0  0  0  0  0  0  0  0  0  0  0
    4.5856   -9.0704   28.9168 Br  0  0  0  0  0  0  0  0  0  0  0  0
    2.8594   -8.4373   15.9148 He  0  0  0  0  0  0  0  0  0  0  0  0
    2.8282   -7.7527   27.6433 He  0  0  0  0  0  0  0  0  0  0  0  0
   -0.4586  -11.7049   18.7813 He  0  0  0  0  0  0  0  0  0  0  0  0
    0.2112  -11.3840   17.4256 He  0  0  0  0  0  0  0  0  0  0  0  0
  1  7  4  0
  1 13  4  0
  2  3  2  0
  2 12  3  0
  2 14  3  0
  2 23  4  0
  2 24  2  0
  3  6  2  0
  3 20  2  0
  3 22  1  0
  4  5  2  0
  4 10  2  0
  4 21  1  0
  4 22  3  0
  4 23  3  0
  5  6  4  0
  5  7  2  0
  5 11  3  0
  5 14  4  0
  5 16  2  0
  5 18  2  0
  5 20  2  0
  6  7  3  0
  6 14  3  0
  6 15  1  0
  6 16  4  0
  6 21  2  0
  6 22  1  0
  7  9  1  0
  7 13  2  0
  7 17  3  0
  8 14  2  0
  8 15  4  0
  8 20  1  0
  8 21  3  0
  8 22  1  0
  9 15  2  0
  9 19  4  0
  9 22  4  0
 10 12  4  0
 10 18  4  0
 10 23  4  0
 11 13  2  0
 11 16  1  0
 11 20  4  0
 12 13  2  0
 12 20  4  0
 12 23  4  0
 13 19  1  0
 13 23  3  0
 15 17  4  0
 15 18  1  0
 15 21  2  0
 15 24  4  0
 16 18  3  0
 17 18  3  0
 18 21  1  0
 19 21  1  0
 19 22  1  0
 19 23  3  0
 19 24  4  0
 20 21  2  0
M  END
$$$$

 Created by Python create_sdf_string function

 28 31  0  0  0  0  0  0  0  0999 V2000
    0.2708  -12.8771   18.4560 C   0  0  0  0  0  0  0  0  0  0  0  0
    3.1887   -8.4609   28.7366 C   0  0  0  0  0  0  0  0  0  0  0  0
    0.8171   -6.5850   27.7065 C   0  0  0  0  0  0  0  0  0  0  0  0
    1.5782   -4.5200   26.6613 C   0  0  0  0  0  0  0  0  0  0  0  0
    2.3903   -9.9582   30.4122 C   0  0  0  0  0  0  0  0  0  0  0  0
    1.9780   -6.5531   27.5007 N   0  0  0  0  0  0  0  0  0  0  0  0
    0.9839  -11.7483   17.8358 C   0  0  0  0  0  0  0  0  0  0  0  0
   -1.0946  -10.5901   17.9048 C   0  0  0  0  0  0  0  0  0  0  0  0
    5.2963   -7.8314   27.0966 C   0  0  0  0  0  0  0  0  0  0  0  0
    2.1824   -9.5176   16.5115 C   0  0  0  0  0  0  0  0  0  0  0  0
    1.9826   -7.3576   15.7145 C   0  0  0  0  0  0  0  0  0  0  0  0
    2.7370   -8.3793   15.9810 C   0  0  0  0  0  0  0  0  0  0  0  0
    0.0480   -8.3928   16.4811 C   0  0  0  0  0  0  0  0  0  0  0  0
    4.2478   -7.0742   26.9604 C   0  0  0  0  0  0  0  0  0  0  0  0
   -1.6389  -11.7303   18.6613 C   0  0  0  0  0  0  0  0  0  0  0  0
    4.7199   -9.9374   29.8853 C   0  0  0  0  0  0  0  0  0  0  0  0
    2.0632   -8.9702   29.4686 N   0  0  0  0  0  0  0  0  0  0  0  0
    3.6705  -10.3242   30.5346 N   0  0  0  0  0  0  0  0  0  0  0  0
   -0.0389   -5.4705   27.3015 C   0  0  0  0  0  0  0  0  0  0  0  0
    3.1414   -7.3920   27.7565 C   0  0  0  0  0  0  0  0  0  0  0  0
    5.3994   -8.7087   27.9401 N   0  0  0  0  0  0  0  0  0  0  0  0
   -0.9016  -12.7340   18.8854 C   0  0  0  0  0  0  0  0  0  0  0  0
    0.6722   -7.3259   15.9313 C   0  0  0  0  0  0  0  0  0  0  0  0
    0.2275  -10.6449   17.4834 C   0  0  0  0  0  0  0  0  0  0  0  0
    5.8665  -10.3125   30.0778 O   0  0  0  0  0  0  0  0  0  0  0  0
    2.2817   -5.1901   27.0744 C   0  0  0  0  0  0  0  0  0  0  0  0
    0.7967   -9.5661   16.8554 C   0  0  0  0  0  0  0  0  0  0  0  0
    4.3889   -9.0559   28.8670 C   0  0  0  0  0  0  0  0  0  0  0  0
  1  7  4  0
  1 22  4  0
  2 17  4  0
  2 20  4  0
  2 28  4  0
  3  6  1  0
  3 19  1  0
  4 19  1  0
  4 26  1  0
  5 17  4  0
  5 18  4  0
  6 20  1  0
  6 26  1  0
  7 24  4  0
  8 15  4  0
  8 24  4  0
  9 14  4  0
  9 21  4  0
 10 12  4  0
 10 27  4  0
 11 12  4  0
 11 23  4  0
 13 23  4  0
 13 27  4  0
 14 20  4  0
 15 22  4  0
 16 18  4  0
 16 25  2  0
 16 28  4  0
 21 28  4  0
 24 27  1  0
M  END
$$$$

 Created by Python create_sdf_string function

 28 59  0  0  0  0  0  0  0  0999 V2000
    0.2214  -12.9958   18.3530 C   0  0  0  0  0  0  0  0  0  0  0  0
    3.4679   -8.4517   29.0784 C   0  0  0  0  0  0  0  0  0  0  0  0
    0.7532   -8.1966   27.5008 O   0  0  0  0  0  0  0  0  0  0  0  0
    1.7756   -3.7039   26.4190 Cl  0  0  0  0  0  0  0  0  0  0  0  0
    1.6665   -5.8484   27.4270 N   0  0  0  0  0  0  0  0  0  0  0  0
    1.4352  -11.3875   18.7608 C   0  0  0  0  0  0  0  0  0  0  0  0
   -1.5540  -10.8302   18.1581 C   0  0  0  0  0  0  0  0  0  0  0  0
    5.3974   -7.3837   26.9488 C   0  0  0  0  0  0  0  0  0  0  0  0
    2.3838   -9.4393   16.5008 C   0  0  0  0  0  0  0  0  0  0  0  0
    1.7706   -7.6508   15.6611 C   0  0  0  0  0  0  0  0  0  0  0  0
    2.5307   -8.4349   16.1582 C   0  0  0  0  0  0  0  0  0  0  0  0
    0.2413   -8.4941   16.5643 C   0  0  0  0  0  0  0  0  0  0  0  0
   -1.7649  -11.7439   18.2904 C   0  0  0  0  0  0  0  0  0  0  0  0
    3.6790  -10.3893   30.7552 N   0  0  0  0  0  0  0  0  0  0  0  0
   -0.7583   -4.7248   26.9320 N   0  0  0  0  0  0  0  0  0  0  0  0
    3.1918   -7.5164   27.5577 C   0  0  0  0  0  0  0  0  0  0  0  0
    4.9186   -8.5884   27.7563 N   0  0  0  0  0  0  0  0  0  0  0  0
    0.6061   -7.6022   15.7894 C   0  0  0  0  0  0  0  0  0  0  0  0
    0.6078  -10.8477   17.0425 S   0  0  0  0  0  0  0  0  0  0  0  0
    6.0236  -10.0153   30.1562 O   0  0  0  0  0  0  0  0  0  0  0  0
    2.6557   -6.0332   26.3147 S   0  0  0  0  0  0  0  0  0  0  0  0
    0.7722   -9.3815   16.8435 C   0  0  0  0  0  0  0  0  0  0  0  0
    4.3720   -8.7608   29.0718 C   0  0  0  0  0  0  0  0  0  0  0  0
    2.4515  -10.1198   30.2651 He  0  0  0  0  0  0  0  0  0  0  0  0
    5.3225   -6.2558   27.5408 He  0  0  0  0  0  0  0  0  0  0  0  0
    4.6370   -9.8278   29.6185 He  0  0  0  0  0  0  0  0  0  0  0  0
    1.4077   -7.7624   29.0274 He  0  0  0  0  0  0  0  0  0  0  0  0
   -0.2624  -13.3628   19.1881 He  0  0  0  0  0  0  0  0  0  0  0  0
  1  6  4  0
  1 11  1  0
  1 12  4  0
  1 17  1  0
  1 20  4  0
  2  5  1  0
  2 13  2  0
  2 16  4  0
  2 19  2  0
  2 23  4  0
  3  4  1  0
  3  8  3  0
  3  9  2  0
  3 12  2  0
  3 18  4  0
  3 19  4  0
  3 23  3  0
  4  7  4  0
  4 15  1  0
  4 21  4  0
  5 11  2  0
  5 12  4  0
  5 14  4  0
  5 16  4  0
  5 21  1  0
  6  7  1  0
  6  9  2  0
  6 13  3  0
  6 18  4  0
  6 19  4  0
  6 20  3  0
  6 22  2  0
  7  9  1  0
  7 19  4  0
  8 17  4  0
  9 11  4  0
  9 15  1  0
  9 16  1  0
  9 22  4  0
 10 11  4  0
 10 18  4  0
 10 23  2  0
 11 18  2  0
 12 13  2  0
 12 18  4  0
 12 21  1  0
 12 22  4  0
 13 20  3  0
 13 22  4  0
 14 20  3  0
 14 23  4  0
 15 16  3  0
 15 21  2  0
 16 19  2  0
 16 22  3  0
 17 19  4  0
 17 21  2  0
 17 23  4  0
 18 23  1  0
M  END
$$$$

 Created by Python create_sdf_string function

 28 30  0  0  0  0  0  0  0  0999 V2000
    0.4600  -12.9311   18.5922 C   0  0  0  0  0  0  0  0  0  0  0  0
    3.2862   -8.2062   28.6152 C   0  0  0  0  0  0  0  0  0  0  0  0
    0.8592   -7.0355   27.3067 O   0  0  0  0  0  0  0  0  0  0  0  0
    1.2019   -4.3189   26.7005 C   0  0  0  0  0  0  0  0  0  0  0  0
    2.3249   -9.6644   30.2325 C   0  0  0  0  0  0  0  0  0  0  0  0
    1.8454   -6.4468   27.2741 C   0  0  0  0  0  0  0  0  0  0  0  0
    1.1154  -11.7018   18.1385 C   0  0  0  0  0  0  0  0  0  0  0  0
   -1.1071  -10.7801   17.9829 C   0  0  0  0  0  0  0  0  0  0  0  0
    5.6062   -7.4898   27.1918 C   0  0  0  0  0  0  0  0  0  0  0  0
    2.2368   -9.4506   16.7506 C   0  0  0  0  0  0  0  0  0  0  0  0
    1.9052   -7.4168   15.6303 C   0  0  0  0  0  0  0  0  0  0  0  0
    2.7091   -8.3646   16.0295 C   0  0  0  0  0  0  0  0  0  0  0  0
    0.0045   -8.5426   16.5509 C   0  0  0  0  0  0  0  0  0  0  0  0
    4.4732   -6.7598   27.0304 N   0  0  0  0  0  0  0  0  0  0  0  0
   -1.6085  -11.9609   18.5717 C   0  0  0  0  0  0  0  0  0  0  0  0
    4.6519   -9.7942   29.8116 C   0  0  0  0  0  0  0  0  0  0  0  0
    2.1506   -8.6903   29.2968 N   0  0  0  0  0  0  0  0  0  0  0  0
    3.5214  -10.1458   30.3988 N   0  0  0  0  0  0  0  0  0  0  0  0
   -0.0759   -4.8258   26.7309 C   0  0  0  0  0  0  0  0  0  0  0  0
    3.3601   -7.1937   27.6908 C   0  0  0  0  0  0  0  0  0  0  0  0
    5.5852   -8.4904   28.0433 N   0  0  0  0  0  0  0  0  0  0  0  0
   -0.7676  -12.9339   18.8636 C   0  0  0  0  0  0  0  0  0  0  0  0
    0.5887   -7.4819   15.8549 C   0  0  0  0  0  0  0  0  0  0  0  0
    0.3294  -10.6637   17.7120 C   0  0  0  0  0  0  0  0  0  0  0  0
    5.7736  -10.2945   30.0739 O   0  0  0  0  0  0  0  0  0  0  0  0
    2.0256   -5.5655   26.6423 C   0  0  0  0  0  0  0  0  0  0  0  0
    0.8495   -9.5894   17.0350 C   0  0  0  0  0  0  0  0  0  0  0  0
    4.4601   -8.7956   28.8312 C   0  0  0  0  0  0  0  0  0  0  0  0
  1  7  4  0
  1 22  4  0
  2 17  4  0
  2 20  4  0
  2 28  4  0
  3  6  1  0
  4 19  1  0
  4 26  1  0
  5 17  4  0
  5 18  4  0
  6 20  1  0
  6 26  1  0
  7 24  4  0
  8 15  4  0
  8 24  4  0
  9 14  4  0
  9 21  4  0
 10 12  4  0
 10 27  4  0
 11 12  4  0
 11 23  4  0
 13 23  4  0
 13 27  4  0
 14 20  4  0
 15 22  4  0
 16 18  4  0
 16 25  2  0
 16 28  4  0
 21 28  4  0
 24 27  1  0
M  END
$$$$

 Created by Python create_sdf_string function

 28 63  0  0  0  0  0  0  0  0999 V2000
    0.4081  -12.8121   18.5422 O   0  0  0  0  0  0  0  0  0  0  0  0
    4.0036   -7.7803   28.8516 C   0  0  0  0  0  0  0  0  0  0  0  0
    0.3516   -6.8876   26.3791 O   0  0  0  0  0  0  0  0  0  0  0  0
    0.8992   -3.6706   25.7690 F   0  0  0  0  0  0  0  0  0  0  0  0
    1.9083   -9.8336   30.2037 C   0  0  0  0  0  0  0  0  0  0  0  0
    1.6625   -6.3970   26.6296 P   0  0  0  0  0  0  0  0  0  0  0  0
    0.7269  -10.9004   17.5606 C   0  0  0  0  0  0  0  0  0  0  0  0
   -1.3762  -10.7435   18.5193 C   0  0  0  0  0  0  0  0  0  0  0  0
    5.7940   -7.4675   27.0063 C   0  0  0  0  0  0  0  0  0  0  0  0
    2.1125   -9.6759   16.6738 C   0  0  0  0  0  0  0  0  0  0  0  0
    1.7720   -7.3896   15.4322 Cl  0  0  0  0  0  0  0  0  0  0  0  0
    0.2433   -8.5195   16.4855 C   0  0  0  0  0  0  0  0  0  0  0  0
    4.1596   -6.9879   27.4214 N   0  0  0  0  0  0  0  0  0  0  0  0
   -1.7260  -11.6598   18.4389 C   0  0  0  0  0  0  0  0  0  0  0  0
    4.5634   -9.6417   29.7282 C   0  0  0  0  0  0  0  0  0  0  0  0
    3.7406  -10.0429   29.9010 I   0  0  0  0  0  0  0  0  0  0  0  0
    5.6385   -8.7312   27.7002 N   0  0  0  0  0  0  0  0  0  0  0  0
   -1.0603  -12.8147   18.5572 C   0  0  0  0  0  0  0  0  0  0  0  0
    0.8603   -7.5548   15.9735 C   0  0  0  0  0  0  0  0  0  0  0  0
   -0.2178  -11.3114   17.6105 C   0  0  0  0  0  0  0  0  0  0  0  0
    5.4267  -10.0078   30.2018 O   0  0  0  0  0  0  0  0  0  0  0  0
    1.8578   -5.7355   26.8522 P   0  0  0  0  0  0  0  0  0  0  0  0
    0.8451  -10.0823   16.9430 C   0  0  0  0  0  0  0  0  0  0  0  0
    4.5274   -9.1020   29.2455 C   0  0  0  0  0  0  0  0  0  0  0  0
    2.4936   -8.4410   16.1700 He  0  0  0  0  0  0  0  0  0  0  0  0
    1.7904   -9.3119   29.3385 He  0  0  0  0  0  0  0  0  0  0  0  0
    0.0506   -4.1775   26.9201 He  0  0  0  0  0  0  0  0  0  0  0  0
    2.7989   -7.1223   27.3252 He  0  0  0  0  0  0  0  0  0  0  0  0
  1  3  3  0
  1  5  1  0
  1  9  1  0
  1 13  2  0
  1 16  2  0
  1 18  4  0
  1 23  4  0
  2  9  3  0
  2 10  4  0
  2 11  2  0
  2 14  1  0
  2 16  3  0
  3  6  1  0
  3 24  1  0
  4 10  3  0
  4 12  2  0
  4 15  2  0
  4 19  1  0
  4 20  4  0
  4 22  1  0
  5 18  4  0
  5 23  3  0
  6  9  2  0
  6 18  1  0
  6 22  1  0
  6 24  1  0
  7 11  3  0
  7 16  2  0
  7 19  2  0
  7 20  4  0
  8  9  1  0
  8 16  2  0
  8 18  2  0
  8 20  4  0
  9 13  1  0
  9 15  2  0
  9 17  4  0
  9 19  4  0
  9 23  4  0
 10 18  1  0
 10 23  4  0
 10 24  3  0
 11 13  4  0
 11 19  4  0
 12 13  4  0
 12 14  2  0
 12 19  4  0
 12 22  4  0
 13 15  2  0
 13 17  1  0
 13 21  4  0
 13 22  1  0
 13 23  1  0
 15 16  4  0
 15 21  2  0
 16 18  1  0
 16 20  2  0
 16 22  3  0
 17 24  4  0
 19 20  4  0
 20 23  1  0
 20 24  4  0
 22 23  3  0
M  END
$$$$

 Created by Python create_sdf_string function

 28 30  0  0  0  0  0  0  0  0999 V2000
    0.0990  -12.9887   18.5154 C   0  0  0  0  0  0  0  0  0  0  0  0
    3.2397   -8.3037   28.4099 C   0  0  0  0  0  0  0  0  0  0  0  0
    0.6940   -6.8994   26.8045 O   0  0  0  0  0  0  0  0  0  0  0  0
    1.1225   -4.3020   26.4770 C   0  0  0  0  0  0  0  0  0  0  0  0
    2.1964   -9.7356   30.0549 C   0  0  0  0  0  0  0  0  0  0  0  0
    1.8141   -6.5318   27.1402 C   0  0  0  0  0  0  0  0  0  0  0  0
    0.7567  -11.8269   17.9862 C   0  0  0  0  0  0  0  0  0  0  0  0
   -1.2646  -10.6345   18.1081 C   0  0  0  0  0  0  0  0  0  0  0  0
    5.4740   -7.5645   27.0467 C   0  0  0  0  0  0  0  0  0  0  0  0
    2.1238   -9.5835   16.7142 C   0  0  0  0  0  0  0  0  0  0  0  0
    1.9592   -7.5368   15.7388 C   0  0  0  0  0  0  0  0  0  0  0  0
    2.6835   -8.5564   16.0836 C   0  0  0  0  0  0  0  0  0  0  0  0
   -0.0242   -8.5210   16.6039 C   0  0  0  0  0  0  0  0  0  0  0  0
    4.2524   -6.9315   26.8399 N   0  0  0  0  0  0  0  0  0  0  0  0
   -1.8562  -11.7782   18.6871 C   0  0  0  0  0  0  0  0  0  0  0  0
    4.5893   -9.7960   29.7454 C   0  0  0  0  0  0  0  0  0  0  0  0
    2.0903   -8.7448   29.0910 N   0  0  0  0  0  0  0  0  0  0  0  0
    3.4132  -10.1196   30.2944 N   0  0  0  0  0  0  0  0  0  0  0  0
   -0.0282   -4.0946   26.8550 C   0  0  0  0  0  0  0  0  0  0  0  0
    3.1473   -7.2941   27.4862 C   0  0  0  0  0  0  0  0  0  0  0  0
    5.6516   -8.3612   28.0390 N   0  0  0  0  0  0  0  0  0  0  0  0
   -1.1236  -12.8469   18.8601 C   0  0  0  0  0  0  0  0  0  0  0  0
    0.6321   -7.4736   15.9292 C   0  0  0  0  0  0  0  0  0  0  0  0
    0.0834  -10.6640   17.6935 C   0  0  0  0  0  0  0  0  0  0  0  0
    5.7028  -10.3114   30.0473 O   0  0  0  0  0  0  0  0  0  0  0  0
    2.0517   -5.1772   26.7069 C   0  0  0  0  0  0  0  0  0  0  0  0
    0.7025   -9.6396   17.0626 C   0  0  0  0  0  0  0  0  0  0  0  0
    4.4488   -8.8474   28.7259 C   0  0  0  0  0  0  0  0  0  0  0  0
  1  7  4  0
  1 22  4  0
  2 17  4  0
  2 20  4  0
  2 28  4  0
  3  6  1  0
  4 19  1  0
  4 26  1  0
  5 17  4  0
  5 18  4  0
  6 20  1  0
  6 26  1  0
  7 24  4  0
  8 15  4  0
  8 24  4  0
  9 14  4  0
  9 21  4  0
 10 12  4  0
 10 27  4  0
 11 12  4  0
 11 23  4  0
 13 23  4  0
 13 27  4  0
 14 20  4  0
 15 22  4  0
 16 18  4  0
 16 25  2  0
 16 28  4  0
 21 28  4  0
 24 27  1  0
M  END
$$$$

 Created by Python create_sdf_string function

 28 45  0  0  0  0  0  0  0  0999 V2000
    0.2796  -12.9876   18.3613 C   0  0  0  0  0  0  0  0  0  0  0  0
    3.6081   -8.5098   27.9784 F   0  0  0  0  0  0  0  0  0  0  0  0
    0.6326   -4.3779   26.2081 C   0  0  0  0  0  0  0  0  0  0  0  0
    2.1030   -9.7808   29.6169 F   0  0  0  0  0  0  0  0  0  0  0  0
    2.0408   -6.9188   26.9064 C   0  0  0  0  0  0  0  0  0  0  0  0
   -1.3440  -11.3138   18.0186 C   0  0  0  0  0  0  0  0  0  0  0  0
    1.6166   -7.3370   15.7463 C   0  0  0  0  0  0  0  0  0  0  0  0
    2.5579   -8.5562   16.0826 C   0  0  0  0  0  0  0  0  0  0  0  0
   -0.0948   -8.6294   16.8418 C   0  0  0  0  0  0  0  0  0  0  0  0
    4.1184   -6.4282   27.2837 N   0  0  0  0  0  0  0  0  0  0  0  0
   -2.0959  -11.5605   18.7047 S   0  0  0  0  0  0  0  0  0  0  0  0
    4.3001   -9.7603   29.5755 C   0  0  0  0  0  0  0  0  0  0  0  0
    2.1933   -8.5226   29.2329 N   0  0  0  0  0  0  0  0  0  0  0  0
    3.5969  -10.1045   30.2067 N   0  0  0  0  0  0  0  0  0  0  0  0
    0.5549   -4.1468   27.7323 C   0  0  0  0  0  0  0  0  0  0  0  0
    3.5205   -7.1441   27.4381 C   0  0  0  0  0  0  0  0  0  0  0  0
    5.6471   -8.4272   28.2211 Se  0  0  0  0  0  0  0  0  0  0  0  0
   -1.6054  -13.0718   19.2925 F   0  0  0  0  0  0  0  0  0  0  0  0
    0.3360   -7.4016   15.8691 C   0  0  0  0  0  0  0  0  0  0  0  0
    0.4644  -10.2590   17.8616 C   0  0  0  0  0  0  0  0  0  0  0  0
    5.5121  -10.0095   30.0832 O   0  0  0  0  0  0  0  0  0  0  0  0
    0.5435   -9.7711   16.9207 P   0  0  0  0  0  0  0  0  0  0  0  0
    4.7245   -8.8119   28.6990 C   0  0  0  0  0  0  0  0  0  0  0  0
    0.3329   -7.9915   27.1402 He  0  0  0  0  0  0  0  0  0  0  0  0
   -0.6803  -12.3046   17.8084 He  0  0  0  0  0  0  0  0  0  0  0  0
    5.5279   -7.7693   26.8017 He  0  0  0  0  0  0  0  0  0  0  0  0
    2.1403   -9.5855   16.2938 He  0  0  0  0  0  0  0  0  0  0  0  0
    2.5189   -4.8728   26.7473 He  0  0  0  0  0  0  0  0  0  0  0  0
  1 18  4  0
  2  3  2  0
  2  4  1  0
  2  7  2  0
  2 13  4  0
  2 14  3  0
  2 16  4  0
  2 21  2  0
  3  4  4  0
  3 15  1  0
  3 20  2  0
  4 14  4  0
  5 10  4  0
  5 11  2  0
  5 13  1  0
  5 16  1  0
  5 17  3  0
  5 22  1  0
  6  8  4  0
  6 15  1  0
  6 20  4  0
  6 21  3  0
  7  8  3  0
  7 13  4  0
  7 15  1  0
  8 10  4  0
  8 11  3  0
  9 19  4  0
  9 22  4  0
 10 14  3  0
 10 16  4  0
 10 17  2  0
 10 23  3  0
 11 12  2  0
 12 14  4  0
 12 21  2  0
 12 23  4  0
 13 23  3  0
 14 18  1  0
 14 23  3  0
 15 16  4  0
 15 20  3  0
 17 23  4  0
 18 19  1  0
 21 22  3  0
M  END
$$$$

 Created by Python create_sdf_string function

 28 31  0  0  0  0  0  0  0  0999 V2000
   -0.1893  -13.1233   18.4211 C   0  0  0  0  0  0  0  0  0  0  0  0
    3.3501   -8.2989   28.3219 C   0  0  0  0  0  0  0  0  0  0  0  0
    0.9099   -6.8376   27.2162 C   0  0  0  0  0  0  0  0  0  0  0  0
    0.7092   -4.6474   26.6087 C   0  0  0  0  0  0  0  0  0  0  0  0
    2.2743   -9.7408   29.8019 C   0  0  0  0  0  0  0  0  0  0  0  0
    2.0788   -6.5372   27.1245 C   0  0  0  0  0  0  0  0  0  0  0  0
    0.4595  -12.0542   17.8407 C   0  0  0  0  0  0  0  0  0  0  0  0
   -1.3024  -10.6732   18.2627 C   0  0  0  0  0  0  0  0  0  0  0  0
    5.7208   -7.5087   27.0574 C   0  0  0  0  0  0  0  0  0  0  0  0
    1.8678   -9.6643   16.6966 C   0  0  0  0  0  0  0  0  0  0  0  0
    1.7062   -7.4673   15.7476 C   0  0  0  0  0  0  0  0  0  0  0  0
    2.4330   -8.5599   16.0311 C   0  0  0  0  0  0  0  0  0  0  0  0
   -0.2459   -8.5301   16.7330 C   0  0  0  0  0  0  0  0  0  0  0  0
    4.5222   -6.8815   26.7486 C   0  0  0  0  0  0  0  0  0  0  0  0
   -2.0219  -11.7575   18.7617 C   0  0  0  0  0  0  0  0  0  0  0  0
    4.5608   -9.7747   29.6839 C   0  0  0  0  0  0  0  0  0  0  0  0
    2.1417   -8.8152   28.8719 N   0  0  0  0  0  0  0  0  0  0  0  0
    3.3703  -10.1977   30.1639 N   0  0  0  0  0  0  0  0  0  0  0  0
    0.4148   -4.5799   27.5588 C   0  0  0  0  0  0  0  0  0  0  0  0
    3.4025   -7.2592   27.4047 C   0  0  0  0  0  0  0  0  0  0  0  0
    5.7145   -8.4329   28.0226 N   0  0  0  0  0  0  0  0  0  0  0  0
   -1.4025  -12.8750   18.8564 C   0  0  0  0  0  0  0  0  0  0  0  0
    0.3769   -7.4191   16.0939 C   0  0  0  0  0  0  0  0  0  0  0  0
   -0.0231  -10.7568   17.6511 C   0  0  0  0  0  0  0  0  0  0  0  0
    5.6075  -10.2958   30.0843 O   0  0  0  0  0  0  0  0  0  0  0  0
    2.0709   -5.2376   26.7734 C   0  0  0  0  0  0  0  0  0  0  0  0
    0.5066   -9.7230   17.0411 C   0  0  0  0  0  0  0  0  0  0  0  0
    4.4892   -8.8375   28.6786 C   0  0  0  0  0  0  0  0  0  0  0  0
  1  7  4  0
  1 22  4  0
  2 17  4  0
  2 20  4  0
  2 28  4  0
  3  6  1  0
  3 19  1  0
  4 19  1  0
  4 26  1  0
  5 17  4  0
  5 18  4  0
  6 20  1  0
  6 26  1  0
  7 24  4  0
  8 15  4  0
  8 24  4  0
  9 14  4  0
  9 21  4  0
 10 12  4  0
 10 27  4  0
 11 12  4  0
 11 23  4  0
 13 23  4  0
 13 27  4  0
 14 20  4  0
 15 22  4  0
 16 18  4  0
 16 25  2  0
 16 28  4  0
 21 28  4  0
 24 27  1  0
M  END
$$$$

 Created by Python create_sdf_string function

 28 61  0  0  0  0  0  0  0  0999 V2000
   -0.0056  -13.0605   17.9864 N   0  0  0  0  0  0  0  0  0  0  0  0
    2.5292   -8.8589   28.3795 C   0  0  0  0  0  0  0  0  0  0  0  0
    0.2787   -7.2567   28.2762 C   0  0  0  0  0  0  0  0  0  0  0  0
    1.5229   -3.6335   27.1299 C   0  0  0  0  0  0  0  0  0  0  0  0
    2.8638  -10.1785   29.2679 C   0  0  0  0  0  0  0  0  0  0  0  0
    2.6158   -6.1321   26.9310 F   0  0  0  0  0  0  0  0  0  0  0  0
   -1.4299  -10.8741   19.0224 C   0  0  0  0  0  0  0  0  0  0  0  0
    6.0523   -7.5590   27.1694 C   0  0  0  0  0  0  0  0  0  0  0  0
    1.6907  -10.1361   16.4412 O   0  0  0  0  0  0  0  0  0  0  0  0
    1.7811   -7.1876   15.8447 C   0  0  0  0  0  0  0  0  0  0  0  0
    2.3182   -8.6234   16.3259 C   0  0  0  0  0  0  0  0  0  0  0  0
   -1.9562  -11.7734   18.7253 C   0  0  0  0  0  0  0  0  0  0  0  0
    4.7228  -10.1628   29.7928 C   0  0  0  0  0  0  0  0  0  0  0  0
    3.2825  -10.0186   30.1738 N   0  0  0  0  0  0  0  0  0  0  0  0
    1.0748   -4.5009   27.4242 C   0  0  0  0  0  0  0  0  0  0  0  0
    3.1592   -7.2584   27.7549 C   0  0  0  0  0  0  0  0  0  0  0  0
    5.3103   -8.3404   28.1240 N   0  0  0  0  0  0  0  0  0  0  0  0
   -2.8954  -12.2820   19.2632 C   0  0  0  0  0  0  0  0  0  0  0  0
    0.5057   -7.6055   16.0347 C   0  0  0  0  0  0  0  0  0  0  0  0
   -0.0560  -10.4190   17.8772 C   0  0  0  0  0  0  0  0  0  0  0  0
    5.8177  -10.5706   29.8696 O   0  0  0  0  0  0  0  0  0  0  0  0
    1.8902   -4.7824   25.7418 C   0  0  0  0  0  0  0  0  0  0  0  0
    4.7077   -9.0490   28.6799 C   0  0  0  0  0  0  0  0  0  0  0  0
    0.2170  -12.0546   17.6327 He  0  0  0  0  0  0  0  0  0  0  0  0
   -0.3534   -8.6319   16.7095 He  0  0  0  0  0  0  0  0  0  0  0  0
    4.3840   -7.0501   25.4595 He  0  0  0  0  0  0  0  0  0  0  0  0
    0.7685   -8.2097   28.3900 He  0  0  0  0  0  0  0  0  0  0  0  0
    0.4357   -9.4470   16.8870 He  0  0  0  0  0  0  0  0  0  0  0  0
  1  6  2  0
  1 18  4  0
  1 20  4  0
  1 22  1  0
  2  5  4  0
  2 17  1  0
  2 20  2  0
  2 23  4  0
  3  6  1  0
  3  9  1  0
  3 10  4  0
  3 11  4  0
  3 17  4  0
  3 20  1  0
  3 21  4  0
  4  6  3  0
  4 22  3  0
  5  6  2  0
  5  7  1  0
  5 16  2  0
  6 19  1  0
  6 21  2  0
  6 22  1  0
  7 12  2  0
  7 13  2  0
  7 19  1  0
  7 20  1  0
  7 21  2  0
  8 12  2  0
  8 13  1  0
  8 17  4  0
  8 20  4  0
  9 11  4  0
  9 17  3  0
  9 19  2  0
 10 11  4  0
 10 15  2  0
 10 19  4  0
 10 21  3  0
 11 16  4  0
 12 16  1  0
 12 18  4  0
 13 14  4  0
 13 15  2  0
 13 18  1  0
 13 20  4  0
 13 21  2  0
 13 22  1  0
 13 23  4  0
 14 16  4  0
 14 17  2  0
 14 22  1  0
 15 20  2  0
 16 18  4  0
 16 20  3  0
 16 21  3  0
 16 22  1  0
 17 22  3  0
 17 23  4  0
 18 22  3  0
 19 20  1  0
M  END
$$$$

 Created by Python create_sdf_string function

 28 31  0  0  0  0  0  0  0  0999 V2000
   -0.5353  -13.0706   18.3393 C   0  0  0  0  0  0  0  0  0  0  0  0
    3.2075   -8.3525   28.1617 C   0  0  0  0  0  0  0  0  0  0  0  0
    0.9756   -6.3341   27.8121 C   0  0  0  0  0  0  0  0  0  0  0  0
    1.4557   -4.0524   26.9560 C   0  0  0  0  0  0  0  0  0  0  0  0
    2.1813   -9.8081   29.5804 C   0  0  0  0  0  0  0  0  0  0  0  0
    2.0903   -6.4667   27.0791 N   0  0  0  0  0  0  0  0  0  0  0  0
    0.2200  -12.0073   17.7857 C   0  0  0  0  0  0  0  0  0  0  0  0
   -1.3988  -10.5461   18.4147 C   0  0  0  0  0  0  0  0  0  0  0  0
    5.6025   -7.7250   26.8447 C   0  0  0  0  0  0  0  0  0  0  0  0
    1.7580   -9.7423   16.7724 C   0  0  0  0  0  0  0  0  0  0  0  0
    1.7423   -7.5612   15.8882 C   0  0  0  0  0  0  0  0  0  0  0  0
    2.3967   -8.6704   16.1422 C   0  0  0  0  0  0  0  0  0  0  0  0
   -0.2811   -8.4732   16.7894 C   0  0  0  0  0  0  0  0  0  0  0  0
    4.3829   -7.1441   26.5195 N   0  0  0  0  0  0  0  0  0  0  0  0
   -2.0250  -11.7227   19.0012 C   0  0  0  0  0  0  0  0  0  0  0  0
    4.5818   -9.9684   29.5196 C   0  0  0  0  0  0  0  0  0  0  0  0
    1.9728   -8.7843   28.7159 N   0  0  0  0  0  0  0  0  0  0  0  0
    3.2853  -10.2203   29.7989 N   0  0  0  0  0  0  0  0  0  0  0  0
    0.5275   -4.7343   27.5516 C   0  0  0  0  0  0  0  0  0  0  0  0
    3.2962   -7.3397   27.2199 C   0  0  0  0  0  0  0  0  0  0  0  0
    5.6236   -8.4618   27.9304 N   0  0  0  0  0  0  0  0  0  0  0  0
   -1.7105  -12.6527   18.9253 C   0  0  0  0  0  0  0  0  0  0  0  0
    0.4355   -7.4239   16.1651 C   0  0  0  0  0  0  0  0  0  0  0  0
   -0.2091  -10.7150   17.7660 C   0  0  0  0  0  0  0  0  0  0  0  0
    5.6353  -10.4509   29.9618 O   0  0  0  0  0  0  0  0  0  0  0  0
    2.2695   -5.1548   26.4317 C   0  0  0  0  0  0  0  0  0  0  0  0
    0.4232   -9.6757   17.1338 C   0  0  0  0  0  0  0  0  0  0  0  0
    4.4581   -8.9245   28.5247 C   0  0  0  0  0  0  0  0  0  0  0  0
  1  7  4  0
  1 22  4  0
  2 17  4  0
  2 20  4  0
  2 28  4  0
  3  6  1  0
  3 19  1  0
  4 19  1  0
  4 26  1  0
  5 17  4  0
  5 18  4  0
  6 20  1  0
  6 26  1  0
  7 24  4  0
  8 15  4  0
  8 24  4  0
  9 14  4  0
  9 21  4  0
 10 12  4  0
 10 27  4  0
 11 12  4  0
 11 23  4  0
 13 23  4  0
 13 27  4  0
 14 20  4  0
 15 22  4  0
 16 18  4  0
 16 25  2  0
 16 28  4  0
 21 28  4  0
 24 27  1  0
M  END
$$$$

 Created by Python create_sdf_string function

 28 55  0  0  0  0  0  0  0  0999 V2000
   -0.8129  -13.0740   18.4228 C   0  0  0  0  0  0  0  0  0  0  0  0
    3.0912   -9.2712   27.5316 C   0  0  0  0  0  0  0  0  0  0  0  0
    1.3111   -6.1231   28.3626 P   0  0  0  0  0  0  0  0  0  0  0  0
    1.9564   -3.8436   27.2685 C   0  0  0  0  0  0  0  0  0  0  0  0
    0.1289  -11.8782   17.7916 C   0  0  0  0  0  0  0  0  0  0  0  0
   -1.5886  -11.9585   18.5148 C   0  0  0  0  0  0  0  0  0  0  0  0
    5.7841   -7.9439   26.5035 C   0  0  0  0  0  0  0  0  0  0  0  0
    1.5702   -9.5933   17.1864 C   0  0  0  0  0  0  0  0  0  0  0  0
    1.7070   -7.8718   15.7845 C   0  0  0  0  0  0  0  0  0  0  0  0
    2.7807   -8.1562   16.1399 C   0  0  0  0  0  0  0  0  0  0  0  0
   -0.0488   -8.3082   16.5996 C   0  0  0  0  0  0  0  0  0  0  0  0
    4.4463   -5.3630   26.1914 F   0  0  0  0  0  0  0  0  0  0  0  0
   -2.0153  -12.1210   18.9642 C   0  0  0  0  0  0  0  0  0  0  0  0
    4.8640  -10.0878   29.6917 C   0  0  0  0  0  0  0  0  0  0  0  0
    3.3764  -10.0439   30.1463 N   0  0  0  0  0  0  0  0  0  0  0  0
    0.0861   -4.6814   27.2213 C   0  0  0  0  0  0  0  0  0  0  0  0
    5.3964   -8.3167   27.9429 N   0  0  0  0  0  0  0  0  0  0  0  0
   -1.8737  -11.6782   18.8677 C   0  0  0  0  0  0  0  0  0  0  0  0
    0.7930   -7.4778   15.9029 C   0  0  0  0  0  0  0  0  0  0  0  0
   -1.1369  -11.3204   18.6690 C   0  0  0  0  0  0  0  0  0  0  0  0
    5.6978  -10.5470   30.1453 O   0  0  0  0  0  0  0  0  0  0  0  0
    1.9529   -5.4162   26.4393 N   0  0  0  0  0  0  0  0  0  0  0  0
    0.4827   -9.4955   17.0305 C   0  0  0  0  0  0  0  0  0  0  0  0
    4.3755   -9.1858   28.5367 C   0  0  0  0  0  0  0  0  0  0  0  0
    2.9395  -10.3272   29.7880 He  0  0  0  0  0  0  0  0  0  0  0  0
    1.9871   -5.9472   26.7051 He  0  0  0  0  0  0  0  0  0  0  0  0
    2.1571   -8.5158   29.5363 He  0  0  0  0  0  0  0  0  0  0  0  0
    3.4515   -7.6999   26.9572 He  0  0  0  0  0  0  0  0  0  0  0  0
  1 11  3  0
  2 15  4  0
  2 17  3  0
  3  6  1  0
  3 13  3  0
  3 16  1  0
  4 10  3  0
  4 14  1  0
  4 16  1  0
  4 22  1  0
  4 23  3  0
  5  7  1  0
  5 18  4  0
  5 20  4  0
  6  7  2  0
  6 10  4  0
  6 13  4  0
  6 16  3  0
  6 23  1  0
  6 24  3  0
  7 12  4  0
  7 17  4  0
  7 20  2  0
  8 10  3  0
  8 11  3  0
  8 20  4  0
  8 23  4  0
  9 10  4  0
  9 22  2  0
 10 13  4  0
 10 16  2  0
 11 19  4  0
 11 23  4  0
 12 13  3  0
 12 17  3  0
 12 23  1  0
 12 24  4  0
 13 16  1  0
 13 21  3  0
 14 15  4  0
 14 19  3  0
 14 21  2  0
 14 24  4  0
 15 17  2  0
 15 20  1  0
 15 24  4  0
 16 19  2  0
 16 20  4  0
 16 21  4  0
 17 18  3  0
 17 24  4  0
 19 22  4  0
 20 21  2  0
 20 23  1  0
 21 22  3  0
M  END
$$$$

 Created by Python create_sdf_string function

 28 31  0  0  0  0  0  0  0  0999 V2000
   -0.5259  -13.1354   18.4054 C   0  0  0  0  0  0  0  0  0  0  0  0
    3.3151   -8.3157   28.2153 C   0  0  0  0  0  0  0  0  0  0  0  0
    0.9829   -6.1759   27.9527 C   0  0  0  0  0  0  0  0  0  0  0  0
    1.4125   -4.1720   26.8229 C   0  0  0  0  0  0  0  0  0  0  0  0
    2.3719   -9.7596   29.8747 C   0  0  0  0  0  0  0  0  0  0  0  0
    2.0297   -6.4159   27.0679 C   0  0  0  0  0  0  0  0  0  0  0  0
    0.1986  -12.0414   17.9858 C   0  0  0  0  0  0  0  0  0  0  0  0
   -1.5215  -10.7407   18.3192 C   0  0  0  0  0  0  0  0  0  0  0  0
    5.5698   -7.6258   26.8147 C   0  0  0  0  0  0  0  0  0  0  0  0
    1.7450   -9.7255   17.1068 C   0  0  0  0  0  0  0  0  0  0  0  0
    1.8431   -7.6943   15.9520 C   0  0  0  0  0  0  0  0  0  0  0  0
    2.5209   -8.6931   16.4308 C   0  0  0  0  0  0  0  0  0  0  0  0
   -0.2531   -8.5911   16.7400 C   0  0  0  0  0  0  0  0  0  0  0  0
    4.3619   -7.0189   26.4973 C   0  0  0  0  0  0  0  0  0  0  0  0
   -2.2216  -11.7549   18.8108 C   0  0  0  0  0  0  0  0  0  0  0  0
    4.7000   -9.9139   29.4998 C   0  0  0  0  0  0  0  0  0  0  0  0
    2.1925   -8.8404   28.8429 N   0  0  0  0  0  0  0  0  0  0  0  0
    3.5171  -10.2111   30.0602 N   0  0  0  0  0  0  0  0  0  0  0  0
    0.4158   -4.8017   27.6204 C   0  0  0  0  0  0  0  0  0  0  0  0
    3.2821   -7.2896   27.2586 C   0  0  0  0  0  0  0  0  0  0  0  0
    5.6027   -8.6424   27.6518 N   0  0  0  0  0  0  0  0  0  0  0  0
   -1.6807  -12.6765   18.7135 C   0  0  0  0  0  0  0  0  0  0  0  0
    0.4685   -7.5853   16.0597 C   0  0  0  0  0  0  0  0  0  0  0  0
   -0.3073  -10.7324   17.8232 C   0  0  0  0  0  0  0  0  0  0  0  0
    5.7948  -10.3609   29.8472 O   0  0  0  0  0  0  0  0  0  0  0  0
    2.2709   -5.1263   26.4606 C   0  0  0  0  0  0  0  0  0  0  0  0
    0.3684   -9.6945   17.2477 C   0  0  0  0  0  0  0  0  0  0  0  0
    4.5033   -8.9277   28.4830 C   0  0  0  0  0  0  0  0  0  0  0  0
  1  7  4  0
  1 22  4  0
  2 17  4  0
  2 20  4  0
  2 28  4  0
  3  6  1  0
  3 19  1  0
  4 19  1  0
  4 26  1  0
  5 17  4  0
  5 18  4  0
  6 20  1  0
  6 26  1  0
  7 24  4  0
  8 15  4  0
  8 24  4  0
  9 14  4  0
  9 21  4  0
 10 12  4  0
 10 27  4  0
 11 12  4  0
 11 23  4  0
 13 23  4  0
 13 27  4  0
 14 20  4  0
 15 22  4  0
 16 18  4  0
 16 25  2  0
 16 28  4  0
 21 28  4  0
 24 27  1  0
M  END
$$$$

 Created by Python create_sdf_string function

 28 50  0  0  0  0  0  0  0  0999 V2000
   -0.3345  -13.6206   18.4000 C   0  0  0  0  0  0  0  0  0  0  0  0
    4.0665   -8.7608   28.3064 C   0  0  0  0  0  0  0  0  0  0  0  0
    1.6708   -4.3515   26.8323 C   0  0  0  0  0  0  0  0  0  0  0  0
    2.1258   -9.3369   30.0054 C   0  0  0  0  0  0  0  0  0  0  0  0
    2.3583   -6.5172   26.9204 C   0  0  0  0  0  0  0  0  0  0  0  0
   -0.5780  -12.6726   17.5405 C   0  0  0  0  0  0  0  0  0  0  0  0
   -1.7669  -11.1962   18.5556 C   0  0  0  0  0  0  0  0  0  0  0  0
    6.1790   -7.8456   27.1970 C   0  0  0  0  0  0  0  0  0  0  0  0
    1.7344   -9.7668   17.0288 C   0  0  0  0  0  0  0  0  0  0  0  0
    2.4106   -7.7929   16.0486 C   0  0  0  0  0  0  0  0  0  0  0  0
    2.7206   -8.6620   16.4434 C   0  0  0  0  0  0  0  0  0  0  0  0
   -0.5366   -8.6183   16.8558 C   0  0  0  0  0  0  0  0  0  0  0  0
   -1.9582  -11.8099   18.6829 C   0  0  0  0  0  0  0  0  0  0  0  0
    3.3799  -10.1061   29.9735 N   0  0  0  0  0  0  0  0  0  0  0  0
    0.2333   -5.1605   27.3936 C   0  0  0  0  0  0  0  0  0  0  0  0
    3.5259   -7.1360   27.2570 F   0  0  0  0  0  0  0  0  0  0  0  0
   -1.5497  -12.6680   18.3486 C   0  0  0  0  0  0  0  0  0  0  0  0
    0.5621   -7.5591   16.0028 C   0  0  0  0  0  0  0  0  0  0  0  0
   -0.5608  -10.2685   17.3652 C   0  0  0  0  0  0  0  0  0  0  0  0
    5.9549  -10.2795   29.8264 O   0  0  0  0  0  0  0  0  0  0  0  0
    2.1722   -4.5002   26.4241 C   0  0  0  0  0  0  0  0  0  0  0  0
    0.3056   -9.8407   16.7546 C   0  0  0  0  0  0  0  0  0  0  0  0
    4.6583   -8.9057   28.3053 C   0  0  0  0  0  0  0  0  0  0  0  0
    1.4477   -5.5854   27.9448 He  0  0  0  0  0  0  0  0  0  0  0  0
    3.7145   -5.8324   25.4225 He  0  0  0  0  0  0  0  0  0  0  0  0
    4.7488   -9.9190   29.5481 He  0  0  0  0  0  0  0  0  0  0  0  0
    2.1092   -8.3760   28.6469 He  0  0  0  0  0  0  0  0  0  0  0  0
    5.6327   -8.6728   27.7384 He  0  0  0  0  0  0  0  0  0  0  0  0
  1  6  4  0
  1 17  4  0
  2  4  2  0
  2  9  3  0
  2 12  1  0
  2 14  2  0
  2 16  4  0
  2 20  4  0
  2 22  4  0
  2 23  4  0
  3  6  4  0
  3  7  1  0
  3  8  2  0
  3  9  2  0
  3 15  1  0
  3 18  4  0
  3 21  1  0
  3 22  2  0
  3 23  2  0
  4 13  1  0
  4 14  4  0
  4 15  3  0
  4 22  1  0
  5 10  4  0
  5 16  1  0
  5 17  3  0
  5 21  1  0
  6  9  2  0
  6 15  1  0
  6 18  3  0
  6 19  4  0
  6 22  4  0
  7 20  2  0
  7 23  1  0
  8 17  3  0
  8 20  3  0
  9 11  4  0
  9 22  4  0
 10 11  4  0
 10 19  2  0
 12 17  2  0
 12 18  4  0
 12 22  4  0
 13 17  4  0
 14 15  3  0
 14 17  3  0
 15 22  4  0
 18 23  3  0
 19 20  1  0
 21 22  3  0
M  END
$$$$

 Created by Python create_sdf_string function

 28 31  0  0  0  0  0  0  0  0999 V2000
   -0.5991  -13.3333   18.1026 C   0  0  0  0  0  0  0  0  0  0  0  0
    3.4319   -8.1893   28.1987 C   0  0  0  0  0  0  0  0  0  0  0  0
    1.1782   -6.1275   27.9397 C   0  0  0  0  0  0  0  0  0  0  0  0
    1.2119   -4.1128   26.7603 C   0  0  0  0  0  0  0  0  0  0  0  0
    2.4355   -9.5585   29.8515 C   0  0  0  0  0  0  0  0  0  0  0  0
    2.3550   -6.2038   27.0809 C   0  0  0  0  0  0  0  0  0  0  0  0
    0.0772  -12.2292   17.4962 C   0  0  0  0  0  0  0  0  0  0  0  0
   -1.5809  -10.7232   18.2360 C   0  0  0  0  0  0  0  0  0  0  0  0
    5.6725   -7.5943   26.7075 C   0  0  0  0  0  0  0  0  0  0  0  0
    1.7551   -9.9125   16.9496 C   0  0  0  0  0  0  0  0  0  0  0  0
    1.9391   -7.7129   16.1202 C   0  0  0  0  0  0  0  0  0  0  0  0
    2.5392   -8.8458   16.4896 C   0  0  0  0  0  0  0  0  0  0  0  0
   -0.2436   -8.6129   16.6659 C   0  0  0  0  0  0  0  0  0  0  0  0
    4.5058   -6.9069   26.4842 N   0  0  0  0  0  0  0  0  0  0  0  0
   -2.2248  -11.8895   18.8641 C   0  0  0  0  0  0  0  0  0  0  0  0
    4.6883   -9.8213   29.4993 C   0  0  0  0  0  0  0  0  0  0  0  0
    2.3000   -8.6002   28.8729 N   0  0  0  0  0  0  0  0  0  0  0  0
    3.5448  -10.0870   30.1129 N   0  0  0  0  0  0  0  0  0  0  0  0
    0.3264   -5.0352   27.4133 C   0  0  0  0  0  0  0  0  0  0  0  0
    3.5288   -7.1806   27.2269 C   0  0  0  0  0  0  0  0  0  0  0  0
    5.7833   -8.4421   27.6961 N   0  0  0  0  0  0  0  0  0  0  0  0
   -1.6751  -13.0672   18.8138 C   0  0  0  0  0  0  0  0  0  0  0  0
    0.5643   -7.5703   16.1710 C   0  0  0  0  0  0  0  0  0  0  0  0
   -0.3539  -10.8723   17.5808 C   0  0  0  0  0  0  0  0  0  0  0  0
    5.6955  -10.3817   29.7969 O   0  0  0  0  0  0  0  0  0  0  0  0
    2.4486   -4.8229   26.5353 C   0  0  0  0  0  0  0  0  0  0  0  0
    0.3571   -9.8424   17.0857 C   0  0  0  0  0  0  0  0  0  0  0  0
    4.6180   -8.8656   28.5080 C   0  0  0  0  0  0  0  0  0  0  0  0
  1  7  4  0
  1 22  4  0
  2 17  4  0
  2 20  4  0
  2 28  4  0
  3  6  1  0
  3 19  1  0
  4 19  1  0
  4 26  1  0
  5 17  4  0
  5 18  4  0
  6 20  1  0
  6 26  1  0
  7 24  4  0
  8 15  4  0
  8 24  4  0
  9 14  4  0
  9 21  4  0
 10 12  4  0
 10 27  4  0
 11 12  4  0
 11 23  4  0
 13 23  4  0
 13 27  4  0
 14 20  4  0
 15 22  4  0
 16 18  4  0
 16 25  2  0
 16 28  4  0
 21 28  4  0
 24 27  1  0
M  END
$$$$

 Created by Python create_sdf_string function

 28 62  0  0  0  0  0  0  0  0999 V2000
   -0.6752  -13.3721   18.0870 C   0  0  0  0  0  0  0  0  0  0  0  0
    4.0233   -8.2205   28.5695 C   0  0  0  0  0  0  0  0  0  0  0  0
    1.6922   -6.7755   28.2575 C   0  0  0  0  0  0  0  0  0  0  0  0
    0.9856   -3.9706   26.0801 C   0  0  0  0  0  0  0  0  0  0  0  0
    1.8761   -6.2298   27.4549 C   0  0  0  0  0  0  0  0  0  0  0  0
    0.3340  -11.7101   17.8399 C   0  0  0  0  0  0  0  0  0  0  0  0
   -1.6572  -10.7950   17.8666 Cl  0  0  0  0  0  0  0  0  0  0  0  0
    5.7568   -7.2617   26.4630 C   0  0  0  0  0  0  0  0  0  0  0  0
    1.6791   -9.8809   16.8253 C   0  0  0  0  0  0  0  0  0  0  0  0
    2.1429   -7.9477   16.3473 C   0  0  0  0  0  0  0  0  0  0  0  0
    2.6346   -8.5362   16.4563 C   0  0  0  0  0  0  0  0  0  0  0  0
   -0.1134   -8.4020   16.6207 C   0  0  0  0  0  0  0  0  0  0  0  0
    4.5218   -6.8867   26.7546 C   0  0  0  0  0  0  0  0  0  0  0  0
   -2.2603  -11.7018   18.7483 F   0  0  0  0  0  0  0  0  0  0  0  0
    4.6163   -9.4966   29.7085 C   0  0  0  0  0  0  0  0  0  0  0  0
    2.2061   -8.9242   29.2451 N   0  0  0  0  0  0  0  0  0  0  0  0
    3.3135   -9.9638   30.1731 N   0  0  0  0  0  0  0  0  0  0  0  0
    3.2276   -7.4654   26.8632 C   0  0  0  0  0  0  0  0  0  0  0  0
    5.9276   -8.3577   27.7299 O   0  0  0  0  0  0  0  0  0  0  0  0
   -2.2606  -13.2595   18.0221 P   0  0  0  0  0  0  0  0  0  0  0  0
    0.6814   -7.6837   16.3174 C   0  0  0  0  0  0  0  0  0  0  0  0
   -0.3986  -11.2406   18.5265 C   0  0  0  0  0  0  0  0  0  0  0  0
    5.6010  -10.3459   29.9668 O   0  0  0  0  0  0  0  0  0  0  0  0
    1.9101   -4.5527   26.3195 C   0  0  0  0  0  0  0  0  0  0  0  0
    0.2605   -9.6836   17.1499 C   0  0  0  0  0  0  0  0  0  0  0  0
    4.6728   -9.2184   28.7248 C   0  0  0  0  0  0  0  0  0  0  0  0
    2.1955   -9.3976   29.2193 He  0  0  0  0  0  0  0  0  0  0  0  0
    0.1277   -4.5179   26.7623 He  0  0  0  0  0  0  0  0  0  0  0  0
  1  4  1  0
  1  6  4  0
  1 19  3  0
  1 24  2  0
  1 26  1  0
  2 11  3  0
  2 13  2  0
  2 14  3  0
  2 16  4  0
  2 24  1  0
  2 25  3  0
  2 26  4  0
  3 14  2  0
  3 18  4  0
  3 19  4  0
  4 12  4  0
  4 24  1  0
  5  7  1  0
  5 16  1  0
  5 18  4  0
  5 24  1  0
  6  9  3  0
  6 11  2  0
  6 14  4  0
  6 18  3  0
  6 24  2  0
  7  8  2  0
  7 10  1  0
  7 14  4  0
  7 22  4  0
  8 13  4  0
  8 18  1  0
  8 19  4  0
  9 11  4  0
  9 13  3  0
  9 25  2  0
 10 11  4  0
 10 21  4  0
 10 22  3  0
 11 21  4  0
 12 16  4  0
 12 21  4  0
 12 25  4  0
 13 18  2  0
 13 22  2  0
 13 23  1  0
 13 26  3  0
 14 18  3  0
 14 20  4  0
 15 17  4  0
 15 20  2  0
 15 23  2  0
 15 26  4  0
 16 19  3  0
 16 20  1  0
 16 21  2  0
 16 23  2  0
 19 20  3  0
 19 21  4  0
 19 26  4  0
 22 25  1  0
 22 26  1  0
M  END
$$$$

 Created by Python create_sdf_string function

 28 31  0  0  0  0  0  0  0  0999 V2000
   -0.6609  -13.2750   18.2547 C   0  0  0  0  0  0  0  0  0  0  0  0
    3.4263   -8.1720   28.2757 C   0  0  0  0  0  0  0  0  0  0  0  0
    0.8568   -6.2430   27.7276 C   0  0  0  0  0  0  0  0  0  0  0  0
    1.0411   -4.1474   26.5684 C   0  0  0  0  0  0  0  0  0  0  0  0
    2.4136   -9.5111   29.8305 C   0  0  0  0  0  0  0  0  0  0  0  0
    2.0873   -6.2001   27.1966 C   0  0  0  0  0  0  0  0  0  0  0  0
    0.1797  -12.1800   17.8253 C   0  0  0  0  0  0  0  0  0  0  0  0
   -1.6533  -10.6677   18.1305 C   0  0  0  0  0  0  0  0  0  0  0  0
    5.6963   -7.5767   26.8067 C   0  0  0  0  0  0  0  0  0  0  0  0
    1.8285   -9.9161   17.0472 C   0  0  0  0  0  0  0  0  0  0  0  0
    1.9764   -7.7493   16.1595 C   0  0  0  0  0  0  0  0  0  0  0  0
    2.5787   -8.8588   16.5001 C   0  0  0  0  0  0  0  0  0  0  0  0
   -0.1550   -8.5728   16.8672 C   0  0  0  0  0  0  0  0  0  0  0  0
    4.4599   -6.8694   26.5998 C   0  0  0  0  0  0  0  0  0  0  0  0
   -2.4180  -11.8198   18.5307 C   0  0  0  0  0  0  0  0  0  0  0  0
    4.6644   -9.7919   29.5395 C   0  0  0  0  0  0  0  0  0  0  0  0
    2.2383   -8.5909   28.8578 N   0  0  0  0  0  0  0  0  0  0  0  0
    3.5141  -10.0612   30.1200 N   0  0  0  0  0  0  0  0  0  0  0  0
    0.0569   -4.8760   27.0545 C   0  0  0  0  0  0  0  0  0  0  0  0
    3.4167   -7.1196   27.3642 C   0  0  0  0  0  0  0  0  0  0  0  0
    5.7470   -8.4932   27.8350 C   0  0  0  0  0  0  0  0  0  0  0  0
   -1.8924  -13.0195   18.5663 C   0  0  0  0  0  0  0  0  0  0  0  0
    0.6436   -7.5751   16.3236 C   0  0  0  0  0  0  0  0  0  0  0  0
   -0.3409  -10.8659   17.7275 C   0  0  0  0  0  0  0  0  0  0  0  0
    5.7196  -10.3079   29.9191 O   0  0  0  0  0  0  0  0  0  0  0  0
    2.2516   -4.9943   26.5558 C   0  0  0  0  0  0  0  0  0  0  0  0
    0.4142   -9.8338   17.2374 C   0  0  0  0  0  0  0  0  0  0  0  0
    4.5612   -8.8125   28.5739 C   0  0  0  0  0  0  0  0  0  0  0  0
  1  7  4  0
  1 22  4  0
  2 17  4  0
  2 20  4  0
  2 28  4  0
  3  6  1  0
  3 19  1  0
  4 19  1  0
  4 26  1  0
  5 17  4  0
  5 18  4  0
  6 20  1  0
  6 26  1  0
  7 24  4  0
  8 15  4  0
  8 24  4  0
  9 14  4  0
  9 21  4  0
 10 12  4  0
 10 27  4  0
 11 12  4  0
 11 23  4  0
 13 23  4  0
 13 27  4  0
 14 20  4  0
 15 22  4  0
 16 18  4  0
 16 25  2  0
 16 28  4  0
 21 28  4  0
 24 27  1  0
M  END
$$$$

 Created by Python create_sdf_string function

 28 59  0  0  0  0  0  0  0  0999 V2000
   -0.8459  -13.2269   18.4098 C   0  0  0  0  0  0  0  0  0  0  0  0
    1.2894   -6.5147   27.7428 C   0  0  0  0  0  0  0  0  0  0  0  0
    0.8983   -3.9613   26.8875 C   0  0  0  0  0  0  0  0  0  0  0  0
    2.0447   -9.4050   29.1463 C   0  0  0  0  0  0  0  0  0  0  0  0
    1.5283   -5.7035   27.4525 C   0  0  0  0  0  0  0  0  0  0  0  0
   -0.3240  -12.2727   17.2569 C   0  0  0  0  0  0  0  0  0  0  0  0
   -1.0562  -10.3819   18.4138 C   0  0  0  0  0  0  0  0  0  0  0  0
    5.9228   -7.7004   26.5652 C   0  0  0  0  0  0  0  0  0  0  0  0
    1.6782   -9.9084   17.2564 C   0  0  0  0  0  0  0  0  0  0  0  0
    2.6372   -8.3478   16.3505 C   0  0  0  0  0  0  0  0  0  0  0  0
    0.0076   -8.7591   16.6692 C   0  0  0  0  0  0  0  0  0  0  0  0
    4.4776   -6.7884   26.6931 C   0  0  0  0  0  0  0  0  0  0  0  0
   -2.4582  -12.1485   18.3579 C   0  0  0  0  0  0  0  0  0  0  0  0
    4.5492   -9.6105   29.1630 I   0  0  0  0  0  0  0  0  0  0  0  0
    1.5211   -9.3257   29.2169 N   0  0  0  0  0  0  0  0  0  0  0  0
    3.2958  -10.3052   30.4180 N   0  0  0  0  0  0  0  0  0  0  0  0
    3.5550   -6.9824   27.3906 C   0  0  0  0  0  0  0  0  0  0  0  0
    5.4993   -8.2475   27.7431 C   0  0  0  0  0  0  0  0  0  0  0  0
   -2.2145  -14.1376   19.4963 C   0  0  0  0  0  0  0  0  0  0  0  0
    0.8221   -7.3787   16.1783 C   0  0  0  0  0  0  0  0  0  0  0  0
    0.2923  -12.0886   17.3983 C   0  0  0  0  0  0  0  0  0  0  0  0
    2.2555   -5.0296   26.1192 C   0  0  0  0  0  0  0  0  0  0  0  0
    0.7133  -10.0023   17.2775 C   0  0  0  0  0  0  0  0  0  0  0  0
    5.0481   -9.0804   28.5749 C   0  0  0  0  0  0  0  0  0  0  0  0
    3.8073   -8.0183   28.2553 He  0  0  0  0  0  0  0  0  0  0  0  0
    1.9544   -7.7730   16.2058 He  0  0  0  0  0  0  0  0  0  0  0  0
   -0.3686   -5.4720   26.9241 He  0  0  0  0  0  0  0  0  0  0  0  0
    5.4742   -9.8737   30.0951 He  0  0  0  0  0  0  0  0  0  0  0  0
  1  6  4  0
  1  7  2  0
  1 19  4  0
  1 21  1  0
  2  3  2  0
  2 13  1  0
  2 18  3  0
  3 12  4  0
  3 15  1  0
  3 17  4  0
  3 23  1  0
  4  6  3  0
  4  9  1  0
  4 15  3  0
  4 16  4  0
  4 18  4  0
  5 13  3  0
  5 16  3  0
  5 17  2  0
  5 22  1  0
  5 24  2  0
  6 12  1  0
  6 13  3  0
  6 14  2  0
  6 17  4  0
  6 21  4  0
  7 10  2  0
  7 11  3  0
  7 13  3  0
  7 18  3  0
  7 21  4  0
  7 24  2  0
  8 12  4  0
  8 18  4  0
  8 19  2  0
  9 17  4  0
  9 23  4  0
  9 24  4  0
 10 11  4  0
 10 17  4  0
 11 19  4  0
 11 20  1  0
 11 21  1  0
 11 23  4  0
 12 15  1  0
 12 16  3  0
 12 24  3  0
 13 19  4  0
 13 21  1  0
 14 15  1  0
 14 16  4  0
 14 24  4  0
 15 21  4  0
 16 23  4  0
 18 19  4  0
 18 22  4  0
 18 24  4  0
 19 20  1  0
 20 21  2  0
M  END
$$$$

 Created by Python create_sdf_string function

 28 31  0  0  0  0  0  0  0  0999 V2000
   -0.6898  -13.5057   18.1931 C   0  0  0  0  0  0  0  0  0  0  0  0
    3.3565   -8.1355   28.1834 C   0  0  0  0  0  0  0  0  0  0  0  0
    0.8094   -6.5277   27.6556 C   0  0  0  0  0  0  0  0  0  0  0  0
    0.7784   -4.3253   26.7019 C   0  0  0  0  0  0  0  0  0  0  0  0
    2.3937   -9.5227   29.5598 C   0  0  0  0  0  0  0  0  0  0  0  0
    2.0929   -6.2118   27.3086 C   0  0  0  0  0  0  0  0  0  0  0  0
    0.1479  -12.4539   17.6742 C   0  0  0  0  0  0  0  0  0  0  0  0
   -1.5251  -10.9034   18.3387 C   0  0  0  0  0  0  0  0  0  0  0  0
    5.6439   -7.5250   26.7929 C   0  0  0  0  0  0  0  0  0  0  0  0
    1.8563   -9.9928   17.0956 C   0  0  0  0  0  0  0  0  0  0  0  0
    1.9409   -7.8079   16.2418 C   0  0  0  0  0  0  0  0  0  0  0  0
    2.5926   -8.9110   16.6057 C   0  0  0  0  0  0  0  0  0  0  0  0
   -0.1858   -8.7307   16.8154 C   0  0  0  0  0  0  0  0  0  0  0  0
    4.4860   -6.7980   26.6351 C   0  0  0  0  0  0  0  0  0  0  0  0
   -2.2903  -11.9700   18.9042 C   0  0  0  0  0  0  0  0  0  0  0  0
    4.6508   -9.6776   29.5033 C   0  0  0  0  0  0  0  0  0  0  0  0
    2.1826   -8.6325   28.7389 N   0  0  0  0  0  0  0  0  0  0  0  0
    3.4863  -10.0470   29.9773 N   0  0  0  0  0  0  0  0  0  0  0  0
   -0.1497   -5.3491   27.1679 C   0  0  0  0  0  0  0  0  0  0  0  0
    3.3447   -7.0650   27.3412 C   0  0  0  0  0  0  0  0  0  0  0  0
    5.7174   -8.3971   27.7418 C   0  0  0  0  0  0  0  0  0  0  0  0
   -1.8513  -13.1825   18.8388 C   0  0  0  0  0  0  0  0  0  0  0  0
    0.5955   -7.6708   16.3038 C   0  0  0  0  0  0  0  0  0  0  0  0
   -0.2720  -11.1357   17.7202 C   0  0  0  0  0  0  0  0  0  0  0  0
    5.7177  -10.1693   29.9535 O   0  0  0  0  0  0  0  0  0  0  0  0
    2.1719   -4.9372   26.6083 C   0  0  0  0  0  0  0  0  0  0  0  0
    0.4534  -10.0034   17.2074 C   0  0  0  0  0  0  0  0  0  0  0  0
    4.5527   -8.7277   28.4920 C   0  0  0  0  0  0  0  0  0  0  0  0
  1  7  4  0
  1 22  4  0
  2 17  4  0
  2 20  4  0
  2 28  4  0
  3  6  1  0
  3 19  1  0
  4 19  1  0
  4 26  1  0
  5 17  4  0
  5 18  4  0
  6 20  1  0
  6 26  1  0
  7 24  4  0
  8 15  4  0
  8 24  4  0
  9 14  4  0
  9 21  4  0
 10 12  4  0
 10 27  4  0
 11 12  4  0
 11 23  4  0
 13 23  4  0
 13 27  4  0
 14 20  4  0
 15 22  4  0
 16 18  4  0
 16 25  2  0
 16 28  4  0
 21 28  4  0
 24 27  1  0
M  END
$$$$

 Created by Python create_sdf_string function

 28 41  0  0  0  0  0  0  0  0999 V2000
    3.4085   -8.1396   28.0510 C   0  0  0  0  0  0  0  0  0  0  0  0
    1.1135   -6.8481   28.0381 C   0  0  0  0  0  0  0  0  0  0  0  0
    2.7950   -9.6105   29.6547 C   0  0  0  0  0  0  0  0  0  0  0  0
    1.8382   -5.5897   27.2272 C   0  0  0  0  0  0  0  0  0  0  0  0
    0.2700  -12.1294   17.9138 C   0  0  0  0  0  0  0  0  0  0  0  0
   -1.3000  -10.7037   18.1298 C   0  0  0  0  0  0  0  0  0  0  0  0
    5.5406   -7.6938   26.5593 C   0  0  0  0  0  0  0  0  0  0  0  0
    1.7075   -9.9708   17.0614 C   0  0  0  0  0  0  0  0  0  0  0  0
    1.7865   -7.6491   16.3577 C   0  0  0  0  0  0  0  0  0  0  0  0
    2.3374   -8.7873   16.8736 C   0  0  0  0  0  0  0  0  0  0  0  0
   -0.2982   -8.6401   16.9199 C   0  0  0  0  0  0  0  0  0  0  0  0
    4.5053   -6.7634   26.6008 C   0  0  0  0  0  0  0  0  0  0  0  0
   -2.1987  -11.6309   18.9586 C   0  0  0  0  0  0  0  0  0  0  0  0
    4.4607   -9.7712   29.4591 N   0  0  0  0  0  0  0  0  0  0  0  0
    3.2560  -10.1591   29.6605 N   0  0  0  0  0  0  0  0  0  0  0  0
    0.4221   -4.7303   27.1299 O   0  0  0  0  0  0  0  0  0  0  0  0
    3.1829   -7.4178   27.2616 C   0  0  0  0  0  0  0  0  0  0  0  0
    5.8593   -8.0266   27.7338 C   0  0  0  0  0  0  0  0  0  0  0  0
   -1.5371  -13.1739   18.4249 C   0  0  0  0  0  0  0  0  0  0  0  0
    1.0165   -7.8151   16.1197 C   0  0  0  0  0  0  0  0  0  0  0  0
    5.7573   -9.9585   30.2048 O   0  0  0  0  0  0  0  0  0  0  0  0
    0.4944  -10.1350   17.3370 C   0  0  0  0  0  0  0  0  0  0  0  0
    4.3326   -8.3990   28.6468 C   0  0  0  0  0  0  0  0  0  0  0  0
   -0.6146  -13.5483   18.3120 He  0  0  0  0  0  0  0  0  0  0  0  0
    0.4456   -3.9913   27.1516 He  0  0  0  0  0  0  0  0  0  0  0  0
    2.2178   -8.8195   27.7386 He  0  0  0  0  0  0  0  0  0  0  0  0
   -0.4299  -11.5901   17.8955 He  0  0  0  0  0  0  0  0  0  0  0  0
    1.9238   -5.5309   26.0049 He  0  0  0  0  0  0  0  0  0  0  0  0
  1  3  4  0
  1  7  2  0
  1 13  2  0
  1 14  4  0
  1 17  4  0
  1 23  4  0
  2  4  1  0
  2  8  4  0
  2 14  4  0
  3 15  4  0
  3 16  3  0
  3 21  1  0
  3 23  2  0
  4  8  4  0
  4 17  2  0
  4 22  1  0
  6  9  2  0
  6 13  4  0
  6 15  4  0
  6 22  3  0
  6 23  4  0
  7 12  4  0
  7 18  4  0
  7 23  1  0
  8 10  4  0
  8 12  4  0
  8 22  4  0
  9 10  4  0
  9 11  1  0
  9 19  1  0
 11 20  4  0
 12 15  1  0
 12 17  1  0
 12 22  4  0
 13 19  4  0
 14 15  4  0
 14 21  2  0
 14 23  4  0
 17 21  2  0
 18 23  4  0
 19 22  2  0
M  END
$$$$

 Created by Python create_sdf_string function

 28 30  0  0  0  0  0  0  0  0999 V2000
   -0.5240  -13.4021   18.4099 C   0  0  0  0  0  0  0  0  0  0  0  0
    3.3397   -8.1609   28.1421 C   0  0  0  0  0  0  0  0  0  0  0  0
    0.9196   -6.7928   27.8210 C   0  0  0  0  0  0  0  0  0  0  0  0
    0.8711   -4.2696   26.8655 C   0  0  0  0  0  0  0  0  0  0  0  0
    2.2565   -9.6580   29.3879 C   0  0  0  0  0  0  0  0  0  0  0  0
    2.0746   -6.3812   27.2255 C   0  0  0  0  0  0  0  0  0  0  0  0
    0.2489  -12.3237   17.8703 C   0  0  0  0  0  0  0  0  0  0  0  0
   -1.5784  -10.7901   18.3115 C   0  0  0  0  0  0  0  0  0  0  0  0
    5.6998   -7.4360   26.7390 C   0  0  0  0  0  0  0  0  0  0  0  0
    1.8528   -9.9809   17.2217 C   0  0  0  0  0  0  0  0  0  0  0  0
    1.9123   -7.8108   16.2809 C   0  0  0  0  0  0  0  0  0  0  0  0
    2.5747   -8.8909   16.6905 C   0  0  0  0  0  0  0  0  0  0  0  0
   -0.2071   -8.7617   16.8274 C   0  0  0  0  0  0  0  0  0  0  0  0
    4.4583   -6.8817   26.4340 C   0  0  0  0  0  0  0  0  0  0  0  0
   -2.3283  -11.9350   18.8093 C   0  0  0  0  0  0  0  0  0  0  0  0
    4.6202   -9.6391   29.4753 C   0  0  0  0  0  0  0  0  0  0  0  0
    2.1693   -8.6119   28.7190 N   0  0  0  0  0  0  0  0  0  0  0  0
    3.4269  -10.0164   29.8541 N   0  0  0  0  0  0  0  0  0  0  0  0
    0.0716   -4.8323   27.1511 O   0  0  0  0  0  0  0  0  0  0  0  0
    3.3525   -7.1321   27.2139 C   0  0  0  0  0  0  0  0  0  0  0  0
    5.7721   -8.3378   27.7524 C   0  0  0  0  0  0  0  0  0  0  0  0
   -1.7332  -13.1307   18.8409 C   0  0  0  0  0  0  0  0  0  0  0  0
    0.5644   -7.7086   16.3430 C   0  0  0  0  0  0  0  0  0  0  0  0
   -0.2571  -11.0165   17.8198 C   0  0  0  0  0  0  0  0  0  0  0  0
    5.7126  -10.0765   30.0082 O   0  0  0  0  0  0  0  0  0  0  0  0
    1.9035   -5.2393   26.5117 C   0  0  0  0  0  0  0  0  0  0  0  0
    0.4708   -9.9613   17.2947 C   0  0  0  0  0  0  0  0  0  0  0  0
    4.5464   -8.7184   28.4425 C   0  0  0  0  0  0  0  0  0  0  0  0
  1  7  4  0
  1 22  4  0
  2 17  4  0
  2 20  4  0
  2 28  4  0
  3  6  1  0
  4 19  1  0
  4 26  1  0
  5 17  4  0
  5 18  4  0
  6 20  1  0
  6 26  1  0
  7 24  4  0
  8 15  4  0
  8 24  4  0
  9 14  4  0
  9 21  4  0
 10 12  4  0
 10 27  4  0
 11 12  4  0
 11 23  4  0
 13 23  4  0
 13 27  4  0
 14 20  4  0
 15 22  4  0
 16 18  4  0
 16 25  2  0
 16 28  4  0
 21 28  4  0
 24 27  1  0
M  END
$$$$

 Created by Python create_sdf_string function

 28 48  0  0  0  0  0  0  0  0999 V2000
   -0.7161  -13.4960   18.5820 C   0  0  0  0  0  0  0  0  0  0  0  0
    3.2579   -8.2964   28.1485 C   0  0  0  0  0  0  0  0  0  0  0  0
    1.0434   -6.8008   28.0450 C   0  0  0  0  0  0  0  0  0  0  0  0
    2.2444   -9.6098   29.3334 C   0  0  0  0  0  0  0  0  0  0  0  0
    0.0186  -12.7963   17.6331 C   0  0  0  0  0  0  0  0  0  0  0  0
   -1.5293  -10.6289   18.5078 N   0  0  0  0  0  0  0  0  0  0  0  0
    5.4777   -7.3594   26.8675 C   0  0  0  0  0  0  0  0  0  0  0  0
    2.1967   -9.9597   17.1171 C   0  0  0  0  0  0  0  0  0  0  0  0
    1.7329   -7.9030   16.3142 O   0  0  0  0  0  0  0  0  0  0  0  0
    2.7306   -8.9986   16.5493 C   0  0  0  0  0  0  0  0  0  0  0  0
   -0.2728   -8.8100   16.7050 C   0  0  0  0  0  0  0  0  0  0  0  0
    5.0060   -6.8334   26.4404 C   0  0  0  0  0  0  0  0  0  0  0  0
   -2.5448  -11.8984   18.9317 C   0  0  0  0  0  0  0  0  0  0  0  0
    4.3945   -9.8532   29.6723 C   0  0  0  0  0  0  0  0  0  0  0  0
    3.2421  -10.0331   29.6980 N   0  0  0  0  0  0  0  0  0  0  0  0
    0.3747   -5.2109   26.8123 F   0  0  0  0  0  0  0  0  0  0  0  0
    3.6522   -7.0072   27.0482 C   0  0  0  0  0  0  0  0  0  0  0  0
    5.9328   -8.0704   27.6445 C   0  0  0  0  0  0  0  0  0  0  0  0
   -1.9482  -13.3416   18.8147 C   0  0  0  0  0  0  0  0  0  0  0  0
    0.4349   -7.9456   16.4594 C   0  0  0  0  0  0  0  0  0  0  0  0
    6.0439  -10.2190   30.2090 O   0  0  0  0  0  0  0  0  0  0  0  0
    1.8925   -5.2725   26.9005 C   0  0  0  0  0  0  0  0  0  0  0  0
    0.8958   -9.7131   17.5325 C   0  0  0  0  0  0  0  0  0  0  0  0
    4.4613   -8.5816   28.8570 N   0  0  0  0  0  0  0  0  0  0  0  0
    0.7133   -4.4138   26.9186 He  0  0  0  0  0  0  0  0  0  0  0  0
    1.1247   -6.3086   27.5514 He  0  0  0  0  0  0  0  0  0  0  0  0
    2.6375   -8.7666   28.1744 He  0  0  0  0  0  0  0  0  0  0  0  0
    0.7251  -11.0585   17.4145 He  0  0  0  0  0  0  0  0  0  0  0  0
  1  2  3  0
  1  5  4  0
  1 10  1  0
  1 18  2  0
  1 19  4  0
  2  8  2  0
  2 16  3  0
  2 17  4  0
  2 18  2  0
  2 24  4  0
  3 13  2  0
  3 24  2  0
  4 11  3  0
  4 12  1  0
  4 13  3  0
  4 14  3  0
  4 15  4  0
  4 18  4  0
  5 16  1  0
  5 20  2  0
  5 22  3  0
  6  8  3  0
  6  9  2  0
  6 10  3  0
  6 11  3  0
  6 13  4  0
  6 17  4  0
  7 12  4  0
  7 18  4  0
  8 10  4  0
  8 23  4  0
  9 10  1  0
  9 17  3  0
 11 16  1  0
 11 18  3  0
 11 19  2  0
 11 20  4  0
 11 23  4  0
 12 17  4  0
 13 19  4  0
 13 24  1  0
 14 15  4  0
 14 16  1  0
 14 24  4  0
 16 18  2  0
 16 21  3  0
 18 24  4  0
 19 23  3  0
M  END
$$$$

 Created by Python create_sdf_string function

 28 31  0  0  0  0  0  0  0  0999 V2000
   -0.5575  -13.4524   18.3297 C   0  0  0  0  0  0  0  0  0  0  0  0
    3.4671   -8.0922   28.0359 C   0  0  0  0  0  0  0  0  0  0  0  0
    1.0871   -7.2118   27.9705 C   0  0  0  0  0  0  0  0  0  0  0  0
    0.8880   -4.4118   26.8559 C   0  0  0  0  0  0  0  0  0  0  0  0
    2.2083   -9.5217   29.2706 C   0  0  0  0  0  0  0  0  0  0  0  0
    1.8185   -6.5625   27.3045 C   0  0  0  0  0  0  0  0  0  0  0  0
    0.2524  -12.4039   17.8761 C   0  0  0  0  0  0  0  0  0  0  0  0
   -1.5317  -10.8474   18.4181 C   0  0  0  0  0  0  0  0  0  0  0  0
    5.8733   -7.3813   26.9238 C   0  0  0  0  0  0  0  0  0  0  0  0
    2.0032  -10.0465   17.1110 C   0  0  0  0  0  0  0  0  0  0  0  0
    1.8851   -7.8624   16.2420 C   0  0  0  0  0  0  0  0  0  0  0  0
    2.6108   -8.9185   16.5793 C   0  0  0  0  0  0  0  0  0  0  0  0
   -0.1178   -8.9299   16.9727 C   0  0  0  0  0  0  0  0  0  0  0  0
    4.7254   -6.7955   26.5609 C   0  0  0  0  0  0  0  0  0  0  0  0
   -2.2732  -11.9335   18.9107 C   0  0  0  0  0  0  0  0  0  0  0  0
    4.5293   -9.6702   29.4461 C   0  0  0  0  0  0  0  0  0  0  0  0
    2.2664   -8.4600   28.4971 N   0  0  0  0  0  0  0  0  0  0  0  0
    3.3249  -10.0746   29.8076 N   0  0  0  0  0  0  0  0  0  0  0  0
   -0.0722   -5.2670   26.9579 C   0  0  0  0  0  0  0  0  0  0  0  0
    3.5716   -7.1032   27.1915 C   0  0  0  0  0  0  0  0  0  0  0  0
    5.8832   -8.2910   27.9130 C   0  0  0  0  0  0  0  0  0  0  0  0
   -1.7655  -13.1916   18.8540 C   0  0  0  0  0  0  0  0  0  0  0  0
    0.5598   -7.8346   16.4189 C   0  0  0  0  0  0  0  0  0  0  0  0
   -0.1637  -11.1044   17.8482 C   0  0  0  0  0  0  0  0  0  0  0  0
    5.6036  -10.1656   29.9958 O   0  0  0  0  0  0  0  0  0  0  0  0
    2.0314   -5.3181   26.7976 C   0  0  0  0  0  0  0  0  0  0  0  0
    0.5551  -10.0759   17.3102 C   0  0  0  0  0  0  0  0  0  0  0  0
    4.6148   -8.7063   28.4439 C   0  0  0  0  0  0  0  0  0  0  0  0
  1  7  4  0
  1 22  4  0
  2 17  4  0
  2 20  4  0
  2 28  4  0
  3  6  1  0
  3 17  1  0
  4 19  1  0
  4 26  1  0
  5 17  4  0
  5 18  4  0
  6 20  1  0
  6 26  1  0
  7 24  4  0
  8 15  4  0
  8 24  4  0
  9 14  4  0
  9 21  4  0
 10 12  4  0
 10 27  4  0
 11 12  4  0
 11 23  4  0
 13 23  4  0
 13 27  4  0
 14 20  4  0
 15 22  4  0
 16 18  4  0
 16 25  2  0
 16 28  4  0
 21 28  4  0
 24 27  1  0
M  END
$$$$

 Created by Python create_sdf_string function

 28 54  0  0  0  0  0  0  0  0999 V2000
   -0.6845  -13.4190   18.1100 C   0  0  0  0  0  0  0  0  0  0  0  0
    2.5870   -8.7340   28.2986 C   0  0  0  0  0  0  0  0  0  0  0  0
    0.6563   -4.9529   27.1457 N   0  0  0  0  0  0  0  0  0  0  0  0
    2.4069   -9.4256   29.0908 N   0  0  0  0  0  0  0  0  0  0  0  0
    2.1502   -6.6765   27.0624 C   0  0  0  0  0  0  0  0  0  0  0  0
    0.0918  -11.9446   18.0858 C   0  0  0  0  0  0  0  0  0  0  0  0
   -1.4042  -10.9882   18.5389 C   0  0  0  0  0  0  0  0  0  0  0  0
    5.9500   -7.4896   27.0746 C   0  0  0  0  0  0  0  0  0  0  0  0
    1.9226   -9.9096   16.9794 C   0  0  0  0  0  0  0  0  0  0  0  0
    1.9654   -7.7400   16.1980 C   0  0  0  0  0  0  0  0  0  0  0  0
    2.9839   -8.7677   16.7074 C   0  0  0  0  0  0  0  0  0  0  0  0
   -0.4201   -8.8654   17.1485 C   0  0  0  0  0  0  0  0  0  0  0  0
   -2.2516  -11.8989   19.0975 C   0  0  0  0  0  0  0  0  0  0  0  0
    4.7600   -9.5808   29.6996 C   0  0  0  0  0  0  0  0  0  0  0  0
    3.2103  -10.0664   30.0966 N   0  0  0  0  0  0  0  0  0  0  0  0
   -0.5714   -4.8296   27.0487 N   0  0  0  0  0  0  0  0  0  0  0  0
    3.7288   -6.9670   27.1937 C   0  0  0  0  0  0  0  0  0  0  0  0
    5.5788   -8.2837   28.1368 C   0  0  0  0  0  0  0  0  0  0  0  0
   -1.6230  -13.7048   18.9462 C   0  0  0  0  0  0  0  0  0  0  0  0
    0.5961   -8.0715   16.3566 C   0  0  0  0  0  0  0  0  0  0  0  0
    0.0525  -10.6679   17.8509 C   0  0  0  0  0  0  0  0  0  0  0  0
    5.4015  -10.2386   30.0374 O   0  0  0  0  0  0  0  0  0  0  0  0
    2.2217   -5.1651   27.0021 C   0  0  0  0  0  0  0  0  0  0  0  0
    0.6285   -9.9465   17.1199 C   0  0  0  0  0  0  0  0  0  0  0  0
    4.6377   -8.6591   28.3678 C   0  0  0  0  0  0  0  0  0  0  0  0
    0.3476   -7.0895   27.7277 He  0  0  0  0  0  0  0  0  0  0  0  0
    4.4524   -7.7166   26.3866 He  0  0  0  0  0  0  0  0  0  0  0  0
    2.2079   -7.9617   28.4466 He  0  0  0  0  0  0  0  0  0  0  0  0
  1  4  2  0
  1  5  2  0
  1 19  4  0
  2  7  2  0
  2 17  4  0
  2 19  1  0
  2 23  3  0
  2 25  4  0
  3  4  1  0
  3 15  1  0
  3 16  1  0
  3 23  4  0
  4  5  4  0
  4 14  2  0
  4 15  4  0
  4 22  1  0
  5 12  2  0
  5 13  3  0
  5 15  1  0
  5 17  3  0
  5 20  2  0
  6  9  1  0
  6 11  4  0
  6 13  4  0
  6 15  1  0
  6 22  3  0
  6 23  2  0
  7  9  4  0
  7 21  1  0
  7 25  4  0
  8 18  4  0
  9 12  4  0
  9 19  1  0
  9 24  4  0
 10 11  4  0
 10 12  3  0
 10 20  4  0
 10 23  2  0
 12 16  1  0
 12 20  4  0
 12 24  4  0
 13 19  3  0
 14 15  4  0
 14 19  4  0
 14 22  2  0
 14 25  4  0
 18 20  3  0
 18 25  4  0
 19 20  2  0
 19 22  4  0
 20 23  1  0
 21 22  1  0
 21 24  1  0
 24 25  2  0
M  END
$$$$

 Created by Python create_sdf_string function

 28 30  0  0  0  0  0  0  0  0999 V2000
   -0.3981  -13.4652   18.2977 C   0  0  0  0  0  0  0  0  0  0  0  0
    3.3431   -8.1990   28.1517 C   0  0  0  0  0  0  0  0  0  0  0  0
    0.9785   -7.1478   27.8390 C   0  0  0  0  0  0  0  0  0  0  0  0
    0.7115   -4.6497   27.0315 N   0  0  0  0  0  0  0  0  0  0  0  0
    2.0470   -9.3608   29.5282 N   0  0  0  0  0  0  0  0  0  0  0  0
    2.0927   -6.6382   27.0620 C   0  0  0  0  0  0  0  0  0  0  0  0
    0.3157  -12.3204   17.7991 C   0  0  0  0  0  0  0  0  0  0  0  0
   -1.3788  -10.8574   18.5391 C   0  0  0  0  0  0  0  0  0  0  0  0
    5.7464   -7.6166   26.8290 C   0  0  0  0  0  0  0  0  0  0  0  0
    1.9496   -9.9484   17.1642 C   0  0  0  0  0  0  0  0  0  0  0  0
    1.9466   -7.7710   16.2145 C   0  0  0  0  0  0  0  0  0  0  0  0
    2.6526   -8.8841   16.5959 C   0  0  0  0  0  0  0  0  0  0  0  0
   -0.1499   -8.7942   16.9495 C   0  0  0  0  0  0  0  0  0  0  0  0
    4.5194   -7.0049   26.5057 C   0  0  0  0  0  0  0  0  0  0  0  0
   -2.1420  -12.0159   18.9963 C   0  0  0  0  0  0  0  0  0  0  0  0
    4.4309   -9.7642   29.5990 C   0  0  0  0  0  0  0  0  0  0  0  0
    2.1004   -8.4909   28.6397 N   0  0  0  0  0  0  0  0  0  0  0  0
    3.2059   -9.9604   29.9235 N   0  0  0  0  0  0  0  0  0  0  0  0
   -0.4327   -5.1600   27.0208 C   0  0  0  0  0  0  0  0  0  0  0  0
    3.4202   -7.2517   27.1712 C   0  0  0  0  0  0  0  0  0  0  0  0
    5.7464   -8.4640   27.9778 C   0  0  0  0  0  0  0  0  0  0  0  0
   -1.6253  -13.2244   18.8561 C   0  0  0  0  0  0  0  0  0  0  0  0
    0.5904   -7.7283   16.3733 C   0  0  0  0  0  0  0  0  0  0  0  0
   -0.1353  -11.0230   17.9002 C   0  0  0  0  0  0  0  0  0  0  0  0
    5.4377  -10.3330   30.0773 O   0  0  0  0  0  0  0  0  0  0  0  0
    1.9968   -5.3179   26.7329 C   0  0  0  0  0  0  0  0  0  0  0  0
    0.5511   -9.9443   17.3582 C   0  0  0  0  0  0  0  0  0  0  0  0
    4.4817   -8.8128   28.5960 C   0  0  0  0  0  0  0  0  0  0  0  0
  1  7  4  0
  1 22  4  0
  2 17  4  0
  2 20  4  0
  2 28  4  0
  3  6  1  0
  4 19  1  0
  4 26  1  0
  5 17  4  0
  5 18  4  0
  6 20  1  0
  6 26  1  0
  7 24  4  0
  8 15  4  0
  8 24  4  0
  9 14  4  0
  9 21  4  0
 10 12  4  0
 10 27  4  0
 11 12  4  0
 11 23  4  0
 13 23  4  0
 13 27  4  0
 14 20  4  0
 15 22  4  0
 16 18  4  0
 16 25  2  0
 16 28  4  0
 21 28  4  0
 24 27  1  0
M  END
$$$$

 Created by Python create_sdf_string function

 28 33  0  0  0  0  0  0  0  0999 V2000
   -0.2771  -13.4801   18.1195 C   0  0  0  0  0  0  0  0  0  0  0  0
    3.2296   -7.7439   28.4136 C   0  0  0  0  0  0  0  0  0  0  0  0
    0.7934   -7.4835   27.5363 C   0  0  0  0  0  0  0  0  0  0  0  0
    1.8013   -9.8578   29.7964 N   0  0  0  0  0  0  0  0  0  0  0  0
   -1.2198  -10.9957   18.0913 O   0  0  0  0  0  0  0  0  0  0  0  0
    2.1492   -7.6637   16.2972 C   0  0  0  0  0  0  0  0  0  0  0  0
    2.5829   -8.7574   16.3605 C   0  0  0  0  0  0  0  0  0  0  0  0
   -0.0171   -9.0331   16.7751 C   0  0  0  0  0  0  0  0  0  0  0  0
   -2.4144  -11.8011   18.9973 C   0  0  0  0  0  0  0  0  0  0  0  0
    4.2961   -9.7093   29.5108 C   0  0  0  0  0  0  0  0  0  0  0  0
    2.3660   -8.0685   28.4224 O   0  0  0  0  0  0  0  0  0  0  0  0
    3.1018   -9.6639   29.9068 N   0  0  0  0  0  0  0  0  0  0  0  0
   -0.0955   -4.6139   27.1568 C   0  0  0  0  0  0  0  0  0  0  0  0
    3.3908   -7.2394   27.1969 C   0  0  0  0  0  0  0  0  0  0  0  0
    5.4966   -8.5309   28.1254 O   0  0  0  0  0  0  0  0  0  0  0  0
   -1.1638  -13.3699   19.0890 C   0  0  0  0  0  0  0  0  0  0  0  0
    0.7862   -7.8294   16.4890 C   0  0  0  0  0  0  0  0  0  0  0  0
   -0.1045  -11.1973   18.8830 C   0  0  0  0  0  0  0  0  0  0  0  0
    5.4043  -10.3306   29.9027 O   0  0  0  0  0  0  0  0  0  0  0  0
    1.9096   -5.3639   27.1572 C   0  0  0  0  0  0  0  0  0  0  0  0
    0.6507   -9.6534   17.2923 C   0  0  0  0  0  0  0  0  0  0  0  0
    0.7320   -4.9255   27.2710 He  0  0  0  0  0  0  0  0  0  0  0  0
    1.9697   -6.4615   26.7846 He  0  0  0  0  0  0  0  0  0  0  0  0
    0.1664  -11.9062   18.0625 He  0  0  0  0  0  0  0  0  0  0  0  0
    5.8263   -7.8723   26.6735 He  0  0  0  0  0  0  0  0  0  0  0  0
    2.0002  -10.1522   17.1586 He  0  0  0  0  0  0  0  0  0  0  0  0
    4.1278   -7.0932   26.4984 He  0  0  0  0  0  0  0  0  0  0  0  0
    4.5428   -9.2801   28.3673 He  0  0  0  0  0  0  0  0  0  0  0  0
  1  3  2  0
  1 16  3  0
  2 14  4  0
  3  4  1  0
  4  7  1  0
  4 11  4  0
  4 12  4  0
  4 14  4  0
  4 15  3  0
  4 21  1  0
  5  7  4  0
  5  9  4  0
  5 14  2  0
  5 18  4  0
  6  7  4  0
  6 12  3  0
  6 17  4  0
  7 17  4  0
  8 10  2  0
  8 17  4  0
  8 21  4  0
  9 11  1  0
  9 16  3  0
  9 17  1  0
 10 16  2  0
 10 19  2  0
 11 12  4  0
 11 18  1  0
 13 19  1  0
 14 17  1  0
 14 20  4  0
 16 17  1  0
 18 21  1  0
M  END
$$$$

 Created by Python create_sdf_string function

 28 30  0  0  0  0  0  0  0  0999 V2000
   -0.3073  -13.4188   18.4844 C   0  0  0  0  0  0  0  0  0  0  0  0
    3.2852   -8.2464   28.1570 C   0  0  0  0  0  0  0  0  0  0  0  0
    0.7949   -7.0620   27.2711 C   0  0  0  0  0  0  0  0  0  0  0  0
    0.7855   -4.6181   27.2612 C   0  0  0  0  0  0  0  0  0  0  0  0
    2.0753   -9.4118   29.7869 N   0  0  0  0  0  0  0  0  0  0  0  0
    2.0240   -6.6174   26.8637 C   0  0  0  0  0  0  0  0  0  0  0  0
    0.4912  -12.2979   18.0458 C   0  0  0  0  0  0  0  0  0  0  0  0
   -1.3551  -10.8489   18.4759 C   0  0  0  0  0  0  0  0  0  0  0  0
    5.5954   -7.7400   26.7426 C   0  0  0  0  0  0  0  0  0  0  0  0
    2.0256   -9.9676   17.1788 C   0  0  0  0  0  0  0  0  0  0  0  0
    1.9948   -7.8606   16.1508 C   0  0  0  0  0  0  0  0  0  0  0  0
    2.6805   -8.9090   16.5635 C   0  0  0  0  0  0  0  0  0  0  0  0
   -0.0534   -8.7790   17.0264 C   0  0  0  0  0  0  0  0  0  0  0  0
    4.4056   -7.0381   26.4695 C   0  0  0  0  0  0  0  0  0  0  0  0
   -2.1296  -11.9753   18.9076 C   0  0  0  0  0  0  0  0  0  0  0  0
    4.4090   -9.8033   29.5583 C   0  0  0  0  0  0  0  0  0  0  0  0
    2.0810   -8.5362   28.7697 N   0  0  0  0  0  0  0  0  0  0  0  0
    3.1915   -9.9889   30.0094 N   0  0  0  0  0  0  0  0  0  0  0  0
   -0.3288   -4.8155   27.0218 C   0  0  0  0  0  0  0  0  0  0  0  0
    3.3258   -7.3248   27.1399 C   0  0  0  0  0  0  0  0  0  0  0  0
    5.6083   -8.6239   27.7695 C   0  0  0  0  0  0  0  0  0  0  0  0
   -1.5849  -13.2048   18.8509 C   0  0  0  0  0  0  0  0  0  0  0  0
    0.6530   -7.7596   16.3561 C   0  0  0  0  0  0  0  0  0  0  0  0
   -0.0922  -11.0479   17.9809 C   0  0  0  0  0  0  0  0  0  0  0  0
    5.3511  -10.3877   29.9167 O   0  0  0  0  0  0  0  0  0  0  0  0
    2.0168   -5.2821   26.9545 C   0  0  0  0  0  0  0  0  0  0  0  0
    0.6231   -9.9518   17.4064 C   0  0  0  0  0  0  0  0  0  0  0  0
    4.4211   -8.8586   28.5144 C   0  0  0  0  0  0  0  0  0  0  0  0
  1  7  4  0
  1 22  4  0
  2 17  4  0
  2 20  4  0
  2 28  4  0
  3  6  1  0
  4 19  1  0
  4 26  1  0
  5 17  4  0
  5 18  4  0
  6 20  1  0
  6 26  1  0
  7 24  4  0
  8 15  4  0
  8 24  4  0
  9 14  4  0
  9 21  4  0
 10 12  4  0
 10 27  4  0
 11 12  4  0
 11 23  4  0
 13 23  4  0
 13 27  4  0
 14 20  4  0
 15 22  4  0
 16 18  4  0
 16 25  2  0
 16 28  4  0
 21 28  4  0
 24 27  1  0
M  END
$$$$

 Created by Python create_sdf_string function

 28 70  0  0  0  0  0  0  0  0999 V2000
   -0.5441  -13.4484   18.7583 C   0  0  0  0  0  0  0  0  0  0  0  0
    3.6991   -8.4704   27.8710 C   0  0  0  0  0  0  0  0  0  0  0  0
    0.7912   -6.9639   26.6309 C   0  0  0  0  0  0  0  0  0  0  0  0
    1.0430   -4.4728   27.3836 C   0  0  0  0  0  0  0  0  0  0  0  0
    2.6010   -6.2502   27.0384 I   0  0  0  0  0  0  0  0  0  0  0  0
    1.1878  -12.5268   18.2072 C   0  0  0  0  0  0  0  0  0  0  0  0
   -1.5472  -10.5830   18.4781 C   0  0  0  0  0  0  0  0  0  0  0  0
    5.5987   -7.9044   26.5928 C   0  0  0  0  0  0  0  0  0  0  0  0
    2.0764   -9.9490   17.1846 C   0  0  0  0  0  0  0  0  0  0  0  0
    2.1336   -7.8524   16.2654 F   0  0  0  0  0  0  0  0  0  0  0  0
    2.3382   -8.8847   16.6136 C   0  0  0  0  0  0  0  0  0  0  0  0
   -0.0104   -8.8360   16.6514 C   0  0  0  0  0  0  0  0  0  0  0  0
    4.2369   -7.0051   26.8880 C   0  0  0  0  0  0  0  0  0  0  0  0
   -2.2976  -12.0088   18.9191 C   0  0  0  0  0  0  0  0  0  0  0  0
    4.2908   -9.4649   29.5958 C   0  0  0  0  0  0  0  0  0  0  0  0
    2.1053   -8.6403   29.2273 N   0  0  0  0  0  0  0  0  0  0  0  0
    3.2744   -9.9596   29.9661 N   0  0  0  0  0  0  0  0  0  0  0  0
   -0.1829   -4.6394   26.7909 C   0  0  0  0  0  0  0  0  0  0  0  0
    3.3387   -7.2368   27.0852 C   0  0  0  0  0  0  0  0  0  0  0  0
    5.5960   -8.6577   27.6026 C   0  0  0  0  0  0  0  0  0  0  0  0
   -1.5106  -13.0625   18.8610 C   0  0  0  0  0  0  0  0  0  0  0  0
    0.7988   -8.0001   16.1271 C   0  0  0  0  0  0  0  0  0  0  0  0
   -0.4061  -10.7598   18.2905 C   0  0  0  0  0  0  0  0  0  0  0  0
    5.3097  -10.5331   29.7127 O   0  0  0  0  0  0  0  0  0  0  0  0
    2.2705   -5.7693   26.9528 C   0  0  0  0  0  0  0  0  0  0  0  0
    0.5716   -9.9268   17.6621 C   0  0  0  0  0  0  0  0  0  0  0  0
    4.4824   -8.6923   28.6351 C   0  0  0  0  0  0  0  0  0  0  0  0
    2.1816   -9.3984   30.2854 He  0  0  0  0  0  0  0  0  0  0  0  0
  1  3  1  0
  1  4  1  0
  1  6  4  0
  1 14  4  0
  1 16  2  0
  1 21  4  0
  1 27  1  0
  2  3  4  0
  2  7  1  0
  2 17  4  0
  2 19  4  0
  2 22  1  0
  2 27  4  0
  3  5  3  0
  3 12  3  0
  3 18  2  0
  3 22  4  0
  3 26  4  0
  4  5  3  0
  4 16  4  0
  4 18  1  0
  4 27  1  0
  5 12  2  0
  5 14  4  0
  5 16  2  0
  5 17  1  0
  5 19  2  0
  5 25  1  0
  5 26  4  0
  6 14  4  0
  6 21  4  0
  6 22  3  0
  6 23  4  0
  6 24  4  0
  7 12  1  0
  7 14  4  0
  7 23  4  0
  8 13  4  0
  8 20  4  0
  9 11  4  0
  9 20  4  0
  9 22  4  0
  9 26  4  0
 10 11  4  0
 10 13  3  0
 10 22  4  0
 12 20  2  0
 12 22  4  0
 12 26  4  0
 13 19  4  0
 13 20  1  0
 13 26  2  0
 14 21  4  0
 15 17  4  0
 15 23  1  0
 15 24  2  0
 15 25  4  0
 15 27  4  0
 16 20  3  0
 16 23  2  0
 16 24  2  0
 16 25  1  0
 18 19  1  0
 18 25  4  0
 20 26  3  0
 20 27  4  0
 21 24  2  0
 22 23  1  0
 23 27  4  0
 24 25  1  0
M  END
$$$$

 Created by Python create_sdf_string function

 28 31  0  0  0  0  0  0  0  0999 V2000
   -0.3257  -13.3550   18.6838 C   0  0  0  0  0  0  0  0  0  0  0  0
    3.3117   -8.2112   28.2640 C   0  0  0  0  0  0  0  0  0  0  0  0
    0.6208   -6.6062   26.8299 C   0  0  0  0  0  0  0  0  0  0  0  0
    1.0621   -4.3602   27.1875 C   0  0  0  0  0  0  0  0  0  0  0  0
    2.2397   -9.3624   29.9789 C   0  0  0  0  0  0  0  0  0  0  0  0
    2.1342   -6.5303   26.9410 C   0  0  0  0  0  0  0  0  0  0  0  0
    0.4787  -12.2386   18.2394 C   0  0  0  0  0  0  0  0  0  0  0  0
   -1.4598  -10.8135   18.3784 C   0  0  0  0  0  0  0  0  0  0  0  0
    5.6640   -7.8406   26.7284 C   0  0  0  0  0  0  0  0  0  0  0  0
    2.0190   -9.9648   17.3181 C   0  0  0  0  0  0  0  0  0  0  0  0
    2.0243   -7.9445   16.1209 C   0  0  0  0  0  0  0  0  0  0  0  0
    2.6957   -8.9388   16.6531 C   0  0  0  0  0  0  0  0  0  0  0  0
   -0.0637   -8.8456   16.8710 C   0  0  0  0  0  0  0  0  0  0  0  0
    4.4493   -7.1419   26.4762 C   0  0  0  0  0  0  0  0  0  0  0  0
   -2.1919  -11.9501   18.8721 C   0  0  0  0  0  0  0  0  0  0  0  0
    4.4681   -9.9011   29.5522 C   0  0  0  0  0  0  0  0  0  0  0  0
    2.1828   -8.4718   29.0011 N   0  0  0  0  0  0  0  0  0  0  0  0
    3.3501  -10.0108   30.2352 N   0  0  0  0  0  0  0  0  0  0  0  0
   -0.1057   -5.1843   26.8695 C   0  0  0  0  0  0  0  0  0  0  0  0
    3.3777   -7.3024   27.2253 C   0  0  0  0  0  0  0  0  0  0  0  0
    5.6448   -8.7441   27.7438 C   0  0  0  0  0  0  0  0  0  0  0  0
   -1.6137  -13.1545   18.9671 C   0  0  0  0  0  0  0  0  0  0  0  0
    0.6976   -7.8748   16.2026 C   0  0  0  0  0  0  0  0  0  0  0  0
   -0.0965  -10.9794   18.0085 C   0  0  0  0  0  0  0  0  0  0  0  0
    5.4721  -10.5671   29.8426 O   0  0  0  0  0  0  0  0  0  0  0  0
    2.3234   -5.1591   26.9450 C   0  0  0  0  0  0  0  0  0  0  0  0
    0.5904   -9.9626   17.4136 C   0  0  0  0  0  0  0  0  0  0  0  0
    4.4358   -8.9633   28.5044 C   0  0  0  0  0  0  0  0  0  0  0  0
  1  7  4  0
  1 22  4  0
  2 17  4  0
  2 20  4  0
  2 28  4  0
  3  6  1  0
  3 19  1  0
  4 19  1  0
  4 26  1  0
  5 17  4  0
  5 18  4  0
  6 20  1  0
  6 26  1  0
  7 24  4  0
  8 15  4  0
  8 24  4  0
  9 14  4  0
  9 21  4  0
 10 12  4  0
 10 27  4  0
 11 12  4  0
 11 23  4  0
 13 23  4  0
 13 27  4  0
 14 20  4  0
 15 22  4  0
 16 18  4  0
 16 25  2  0
 16 28  4  0
 21 28  4  0
 24 27  1  0
M  END
$$$$

 Created by Python create_sdf_string function

 28 61  0  0  0  0  0  0  0  0999 V2000
   -0.1433  -13.1108   18.8089 C   0  0  0  0  0  0  0  0  0  0  0  0
    3.1974   -8.1019   28.6275 C   0  0  0  0  0  0  0  0  0  0  0  0
    0.2364   -6.3193   26.8652 C   0  0  0  0  0  0  0  0  0  0  0  0
    1.2177   -4.5598   28.0069 C   0  0  0  0  0  0  0  0  0  0  0  0
    1.6082   -9.3788   30.0097 C   0  0  0  0  0  0  0  0  0  0  0  0
    2.4212   -6.4435   27.3524 C   0  0  0  0  0  0  0  0  0  0  0  0
   -0.0186  -12.3961   17.9010 C   0  0  0  0  0  0  0  0  0  0  0  0
   -1.3853  -11.0458   18.7381 C   0  0  0  0  0  0  0  0  0  0  0  0
    5.6792   -7.5904   26.6262 C   0  0  0  0  0  0  0  0  0  0  0  0
    1.9787   -9.6318   17.2839 C   0  0  0  0  0  0  0  0  0  0  0  0
    2.1414   -7.8857   15.9575 C   0  0  0  0  0  0  0  0  0  0  0  0
    2.5819   -8.8717   16.7626 C   0  0  0  0  0  0  0  0  0  0  0  0
   -0.2504   -8.7936   16.9725 C   0  0  0  0  0  0  0  0  0  0  0  0
   -2.2070  -12.1046   18.9706 C   0  0  0  0  0  0  0  0  0  0  0  0
    4.2039  -10.0614   29.7120 C   0  0  0  0  0  0  0  0  0  0  0  0
    2.3987   -8.3206   28.3964 N   0  0  0  0  0  0  0  0  0  0  0  0
    0.0755   -5.6228   26.4413 C   0  0  0  0  0  0  0  0  0  0  0  0
    3.3071   -7.2979   27.0535 C   0  0  0  0  0  0  0  0  0  0  0  0
    5.5901   -8.9333   27.8767 C   0  0  0  0  0  0  0  0  0  0  0  0
   -1.7891  -12.9773   18.9472 C   0  0  0  0  0  0  0  0  0  0  0  0
    0.9207   -7.9384   16.1319 C   0  0  0  0  0  0  0  0  0  0  0  0
   -0.5094  -11.2213   18.1770 C   0  0  0  0  0  0  0  0  0  0  0  0
    5.5309  -10.4329   30.1907 C   0  0  0  0  0  0  0  0  0  0  0  0
    2.2746   -5.4190   27.5391 C   0  0  0  0  0  0  0  0  0  0  0  0
    0.6962  -10.2006   17.5260 C   0  0  0  0  0  0  0  0  0  0  0  0
    4.6984   -9.2668   28.5694 C   0  0  0  0  0  0  0  0  0  0  0  0
    4.2059   -6.8469   26.9511 He  0  0  0  0  0  0  0  0  0  0  0  0
    3.1309  -10.0188   30.0986 He  0  0  0  0  0  0  0  0  0  0  0  0
  1  3  3  0
  1  7  4  0
  1  8  2  0
  1 18  1  0
  1 20  4  0
  2 16  4  0
  2 18  4  0
  3  6  1  0
  3 10  4  0
  3 11  4  0
  3 12  4  0
  3 25  1  0
  4 17  2  0
  4 18  2  0
  4 26  3  0
  5 13  1  0
  5 16  4  0
  6  9  1  0
  6 18  2  0
  6 23  1  0
  6 24  1  0
  7 21  1  0
  7 22  4  0
  7 26  3  0
  8 12  3  0
  8 14  4  0
  8 19  1  0
  8 22  4  0
  8 25  1  0
  9 19  4  0
  9 20  3  0
  9 21  1  0
 10 12  4  0
 10 17  2  0
 10 19  3  0
 10 20  4  0
 10 23  1  0
 10 25  1  0
 11 12  4  0
 11 16  3  0
 11 18  2  0
 11 21  4  0
 11 22  2  0
 12 22  1  0
 12 26  4  0
 13 16  3  0
 13 21  4  0
 13 25  4  0
 14 20  4  0
 15 16  2  0
 15 23  2  0
 15 26  4  0
 16 19  4  0
 16 25  1  0
 17 19  2  0
 19 24  4  0
 19 25  2  0
 20 22  3  0
 20 25  4  0
 21 26  4  0
 23 25  3  0
M  END
$$$$

 Created by Python create_sdf_string function

 28 31  0  0  0  0  0  0  0  0999 V2000
   -0.4480  -13.4064   18.5490 C   0  0  0  0  0  0  0  0  0  0  0  0
    3.2441   -8.2329   28.2899 C   0  0  0  0  0  0  0  0  0  0  0  0
    0.8076   -6.6307   26.8972 C   0  0  0  0  0  0  0  0  0  0  0  0
    1.0018   -4.3618   27.5150 C   0  0  0  0  0  0  0  0  0  0  0  0
    2.0896   -9.4960   29.9082 C   0  0  0  0  0  0  0  0  0  0  0  0
    2.1823   -6.3855   27.1426 C   0  0  0  0  0  0  0  0  0  0  0  0
    0.3415  -12.3212   18.0991 C   0  0  0  0  0  0  0  0  0  0  0  0
   -1.5315  -10.8538   18.4209 C   0  0  0  0  0  0  0  0  0  0  0  0
    5.5991   -7.7892   26.8597 C   0  0  0  0  0  0  0  0  0  0  0  0
    1.9796   -9.9807   17.3274 C   0  0  0  0  0  0  0  0  0  0  0  0
    2.0279   -7.9611   16.1326 C   0  0  0  0  0  0  0  0  0  0  0  0
    2.6876   -8.9615   16.6815 C   0  0  0  0  0  0  0  0  0  0  0  0
   -0.1074   -8.8500   16.8707 C   0  0  0  0  0  0  0  0  0  0  0  0
    4.4354   -7.0481   26.6446 C   0  0  0  0  0  0  0  0  0  0  0  0
   -2.2244  -11.9691   18.9628 C   0  0  0  0  0  0  0  0  0  0  0  0
    4.3641   -9.8673   29.6291 C   0  0  0  0  0  0  0  0  0  0  0  0
    2.0401   -8.5246   28.9226 N   0  0  0  0  0  0  0  0  0  0  0  0
    3.1832  -10.0711   30.2315 N   0  0  0  0  0  0  0  0  0  0  0  0
    0.0540   -5.2944   26.9015 C   0  0  0  0  0  0  0  0  0  0  0  0
    3.3366   -7.2556   27.3542 C   0  0  0  0  0  0  0  0  0  0  0  0
    5.6216   -8.7322   27.8227 C   0  0  0  0  0  0  0  0  0  0  0  0
   -1.6799  -13.1559   19.0004 C   0  0  0  0  0  0  0  0  0  0  0  0
    0.6825   -7.8575   16.1977 C   0  0  0  0  0  0  0  0  0  0  0  0
   -0.1607  -11.0278   17.9598 C   0  0  0  0  0  0  0  0  0  0  0  0
    5.4384  -10.4535   29.9933 O   0  0  0  0  0  0  0  0  0  0  0  0
    2.3613   -4.9832   27.6830 C   0  0  0  0  0  0  0  0  0  0  0  0
    0.5449   -9.9624   17.4106 C   0  0  0  0  0  0  0  0  0  0  0  0
    4.3638   -8.9386   28.5966 C   0  0  0  0  0  0  0  0  0  0  0  0
  1  7  4  0
  1 22  4  0
  2 17  4  0
  2 20  4  0
  2 28  4  0
  3  6  1  0
  3 19  1  0
  4 19  1  0
  4 26  1  0
  5 17  4  0
  5 18  4  0
  6 20  1  0
  6 26  1  0
  7 24  4  0
  8 15  4  0
  8 24  4  0
  9 14  4  0
  9 21  4  0
 10 12  4  0
 10 27  4  0
 11 12  4  0
 11 23  4  0
 13 23  4  0
 13 27  4  0
 14 20  4  0
 15 22  4  0
 16 18  4  0
 16 25  2  0
 16 28  4  0
 21 28  4  0
 24 27  1  0
M  END
$$$$

 Created by Python create_sdf_string function

 28 37  0  0  0  0  0  0  0  0999 V2000
   -0.3475  -13.1997   18.0741 C   0  0  0  0  0  0  0  0  0  0  0  0
    3.2353   -8.1392   27.9593 C   0  0  0  0  0  0  0  0  0  0  0  0
    0.7268   -6.4071   26.8022 C   0  0  0  0  0  0  0  0  0  0  0  0
    1.0380   -4.8116   27.1027 N   0  0  0  0  0  0  0  0  0  0  0  0
    1.5877   -9.5401   29.8055 C   0  0  0  0  0  0  0  0  0  0  0  0
    0.0019  -12.7150   17.5861 C   0  0  0  0  0  0  0  0  0  0  0  0
   -1.4418  -11.1632   18.0326 C   0  0  0  0  0  0  0  0  0  0  0  0
    2.0619   -9.6717   17.3767 C   0  0  0  0  0  0  0  0  0  0  0  0
    2.0336   -8.0539   16.1220 C   0  0  0  0  0  0  0  0  0  0  0  0
    2.6851   -9.1668   17.0265 C   0  0  0  0  0  0  0  0  0  0  0  0
   -2.1362  -11.9741   19.1264 C   0  0  0  0  0  0  0  0  0  0  0  0
    4.3372   -9.6889   29.8356 C   0  0  0  0  0  0  0  0  0  0  0  0
    1.4667   -9.2297   28.6809 N   0  0  0  0  0  0  0  0  0  0  0  0
    3.3898  -10.1990   30.1664 N   0  0  0  0  0  0  0  0  0  0  0  0
    3.4429   -7.0789   27.4497 C   0  0  0  0  0  0  0  0  0  0  0  0
    5.5699   -8.6670   27.6642 S   0  0  0  0  0  0  0  0  0  0  0  0
   -1.9610  -13.6245   18.5818 C   0  0  0  0  0  0  0  0  0  0  0  0
    0.7344   -8.0085   16.1561 C   0  0  0  0  0  0  0  0  0  0  0  0
   -0.1968  -11.1022   17.7117 C   0  0  0  0  0  0  0  0  0  0  0  0
    5.5423  -10.5039   29.8484 O   0  0  0  0  0  0  0  0  0  0  0  0
    2.1890   -5.0807   27.7698 C   0  0  0  0  0  0  0  0  0  0  0  0
    0.5502  -10.0701   17.1508 C   0  0  0  0  0  0  0  0  0  0  0  0
    4.2456   -9.0672   28.5877 C   0  0  0  0  0  0  0  0  0  0  0  0
    1.8120   -6.4270   27.4623 He  0  0  0  0  0  0  0  0  0  0  0  0
    5.6917   -7.9511   26.8708 He  0  0  0  0  0  0  0  0  0  0  0  0
   -0.1513   -8.7155   16.9541 He  0  0  0  0  0  0  0  0  0  0  0  0
    4.5383   -6.9676   26.7646 He  0  0  0  0  0  0  0  0  0  0  0  0
    0.1691   -5.2763   27.1802 He  0  0  0  0  0  0  0  0  0  0  0  0
  1  3  4  0
  1  6  4  0
  1 17  4  0
  2 13  4  0
  2 14  2  0
  2 15  4  0
  2 23  4  0
  3  4  2  0
  3 18  1  0
  4 11  4  0
  4 20  1  0
  4 21  1  0
  5  6  2  0
  5  7  3  0
  5 13  4  0
  5 14  4  0
  5 15  4  0
  5 23  4  0
  6 10  4  0
  6 19  4  0
  7 11  4  0
  7 16  2  0
  7 19  4  0
  8 10  4  0
  8 22  4  0
  9 10  4  0
  9 18  4  0
 10 18  1  0
 10 23  3  0
 12 14  4  0
 12 19  3  0
 12 20  2  0
 12 23  4  0
 13 16  4  0
 16 21  4  0
 16 23  4  0
 20 21  2  0
M  END
$$$$

 Created by Python create_sdf_string function

 28 31  0  0  0  0  0  0  0  0999 V2000
   -0.5603  -13.5749   18.1082 C   0  0  0  0  0  0  0  0  0  0  0  0
    3.1433   -8.3564   28.2546 C   0  0  0  0  0  0  0  0  0  0  0  0
    0.7664   -6.6826   26.9605 C   0  0  0  0  0  0  0  0  0  0  0  0
    0.9606   -4.2985   27.1983 C   0  0  0  0  0  0  0  0  0  0  0  0
    2.0013   -9.6790   29.7317 C   0  0  0  0  0  0  0  0  0  0  0  0
    2.0853   -6.3925   27.2430 C   0  0  0  0  0  0  0  0  0  0  0  0
    0.2205  -12.4883   17.6320 C   0  0  0  0  0  0  0  0  0  0  0  0
   -1.4828  -10.9636   18.3340 C   0  0  0  0  0  0  0  0  0  0  0  0
    5.5079   -7.7054   26.8500 C   0  0  0  0  0  0  0  0  0  0  0  0
    1.9251  -10.0933   17.3381 C   0  0  0  0  0  0  0  0  0  0  0  0
    2.0983   -7.9933   16.2502 C   0  0  0  0  0  0  0  0  0  0  0  0
    2.7020   -9.0583   16.8139 C   0  0  0  0  0  0  0  0  0  0  0  0
   -0.0884   -8.9383   16.7482 C   0  0  0  0  0  0  0  0  0  0  0  0
    4.3493   -6.9797   26.7169 C   0  0  0  0  0  0  0  0  0  0  0  0
   -2.2447  -12.0719   18.8330 C   0  0  0  0  0  0  0  0  0  0  0  0
    4.3401   -9.9637   29.6070 C   0  0  0  0  0  0  0  0  0  0  0  0
    1.9298   -8.7647   28.7803 N   0  0  0  0  0  0  0  0  0  0  0  0
    3.1672  -10.1857   30.1635 N   0  0  0  0  0  0  0  0  0  0  0  0
   -0.0335   -5.3310   26.9331 C   0  0  0  0  0  0  0  0  0  0  0  0
    3.2580   -7.2620   27.3832 C   0  0  0  0  0  0  0  0  0  0  0  0
    5.5486   -8.7426   27.8083 N   0  0  0  0  0  0  0  0  0  0  0  0
   -1.7223  -13.3381   18.7392 C   0  0  0  0  0  0  0  0  0  0  0  0
    0.7347   -7.9164   16.2104 C   0  0  0  0  0  0  0  0  0  0  0  0
   -0.2155  -11.1422   17.7545 C   0  0  0  0  0  0  0  0  0  0  0  0
    5.3614  -10.5150   29.9817 O   0  0  0  0  0  0  0  0  0  0  0  0
    2.2277   -4.9619   27.6116 C   0  0  0  0  0  0  0  0  0  0  0  0
    0.5197  -10.0939   17.3033 C   0  0  0  0  0  0  0  0  0  0  0  0
    4.3127   -9.0149   28.5294 C   0  0  0  0  0  0  0  0  0  0  0  0
  1  7  4  0
  1 22  4  0
  2 17  4  0
  2 20  4  0
  2 28  4  0
  3  6  1  0
  3 19  1  0
  4 19  1  0
  4 26  1  0
  5 17  4  0
  5 18  4  0
  6 20  1  0
  6 26  1  0
  7 24  4  0
  8 15  4  0
  8 24  4  0
  9 14  4  0
  9 21  4  0
 10 12  4  0
 10 27  4  0
 11 12  4  0
 11 23  4  0
 13 23  4  0
 13 27  4  0
 14 20  4  0
 15 22  4  0
 16 18  4  0
 16 25  2  0
 16 28  4  0
 21 28  4  0
 24 27  1  0
M  END
$$$$

 Created by Python create_sdf_string function

 28 41  0  0  0  0  0  0  0  0999 V2000
    3.2883   -8.1656   28.4030 C   0  0  0  0  0  0  0  0  0  0  0  0
    0.6868   -6.8872   26.9009 C   0  0  0  0  0  0  0  0  0  0  0  0
    0.6866   -4.2715   27.2794 P   0  0  0  0  0  0  0  0  0  0  0  0
    1.9901   -6.7061   27.3670 C   0  0  0  0  0  0  0  0  0  0  0  0
    0.0347  -12.4025   17.5126 C   0  0  0  0  0  0  0  0  0  0  0  0
   -1.4532  -11.0693   18.3124 C   0  0  0  0  0  0  0  0  0  0  0  0
    5.2720   -7.7815   26.9021 S   0  0  0  0  0  0  0  0  0  0  0  0
    1.9171  -10.3236   17.2841 C   0  0  0  0  0  0  0  0  0  0  0  0
    2.3344   -7.8650   16.3944 C   0  0  0  0  0  0  0  0  0  0  0  0
    2.8945   -8.9335   16.8520 C   0  0  0  0  0  0  0  0  0  0  0  0
   -0.1862   -8.8504   16.8108 C   0  0  0  0  0  0  0  0  0  0  0  0
    4.2938   -6.7365   27.3208 C   0  0  0  0  0  0  0  0  0  0  0  0
   -2.2555  -12.0200   18.8945 C   0  0  0  0  0  0  0  0  0  0  0  0
    4.1315   -9.8771   29.6487 C   0  0  0  0  0  0  0  0  0  0  0  0
    2.0564   -8.2034   28.6856 C   0  0  0  0  0  0  0  0  0  0  0  0
    3.5206   -7.4657   27.5169 C   0  0  0  0  0  0  0  0  0  0  0  0
    5.6780   -8.9371   27.5132 N   0  0  0  0  0  0  0  0  0  0  0  0
   -1.4433  -13.7670   18.8216 C   0  0  0  0  0  0  0  0  0  0  0  0
    0.6427   -7.7998   15.7554 C   0  0  0  0  0  0  0  0  0  0  0  0
   -0.4851  -11.2299   17.9762 C   0  0  0  0  0  0  0  0  0  0  0  0
    5.3487  -10.5689   29.8252 O   0  0  0  0  0  0  0  0  0  0  0  0
    2.2354   -4.9071   27.1447 C   0  0  0  0  0  0  0  0  0  0  0  0
    0.5549  -10.2216   17.3928 C   0  0  0  0  0  0  0  0  0  0  0  0
    4.4730   -9.0556   28.4762 C   0  0  0  0  0  0  0  0  0  0  0  0
   -0.8360  -13.5608   18.0241 He  0  0  0  0  0  0  0  0  0  0  0  0
    1.7509   -9.8314   29.4058 He  0  0  0  0  0  0  0  0  0  0  0  0
    3.1941  -10.3069   30.0258 He  0  0  0  0  0  0  0  0  0  0  0  0
   -0.6000   -5.4408   27.2256 He  0  0  0  0  0  0  0  0  0  0  0  0
  1  2  1  0
  1  3  3  0
  1  8  3  0
  1 15  4  0
  1 16  1  0
  1 24  4  0
  2  4  1  0
  3 20  3  0
  3 22  1  0
  4 16  1  0
  4 22  1  0
  5 18  4  0
  6 13  4  0
  6 20  4  0
  6 22  3  0
  7 12  4  0
  7 14  1  0
  7 17  4  0
  7 22  3  0
  8 10  4  0
  8 15  1  0
  8 23  4  0
  8 24  4  0
  9 10  4  0
  9 19  4  0
 11 17  1  0
 11 20  1  0
 11 23  4  0
 12 14  1  0
 12 21  1  0
 13 18  4  0
 14 21  2  0
 14 24  4  0
 16 19  4  0
 16 20  4  0
 17 20  1  0
 17 24  4  0
 20 23  1  0
 20 24  3  0
 21 22  3  0
 22 23  2  0
M  END
$$$$

 Created by Python create_sdf_string function

 28 31  0  0  0  0  0  0  0  0999 V2000
   -0.5849  -13.6106   18.1104 C   0  0  0  0  0  0  0  0  0  0  0  0
    3.1320   -8.2921   28.2757 C   0  0  0  0  0  0  0  0  0  0  0  0
    0.6607   -6.7528   27.0009 C   0  0  0  0  0  0  0  0  0  0  0  0
    0.7280   -4.3492   27.1719 C   0  0  0  0  0  0  0  0  0  0  0  0
    1.9857   -9.7092   29.7448 C   0  0  0  0  0  0  0  0  0  0  0  0
    2.0141   -6.3950   27.2322 C   0  0  0  0  0  0  0  0  0  0  0  0
    0.1695  -12.5270   17.5991 C   0  0  0  0  0  0  0  0  0  0  0  0
   -1.4655  -10.9752   18.4256 C   0  0  0  0  0  0  0  0  0  0  0  0
    5.4672   -7.6845   26.9373 C   0  0  0  0  0  0  0  0  0  0  0  0
    1.9155  -10.1711   17.3280 C   0  0  0  0  0  0  0  0  0  0  0  0
    2.1154   -8.0554   16.2668 C   0  0  0  0  0  0  0  0  0  0  0  0
    2.7172   -9.1300   16.8188 C   0  0  0  0  0  0  0  0  0  0  0  0
   -0.0737   -8.9579   16.7437 C   0  0  0  0  0  0  0  0  0  0  0  0
    4.3695   -6.8693   26.8473 C   0  0  0  0  0  0  0  0  0  0  0  0
   -2.2050  -12.0907   18.9553 C   0  0  0  0  0  0  0  0  0  0  0  0
    4.3062  -10.0733   29.4618 C   0  0  0  0  0  0  0  0  0  0  0  0
    1.9510   -8.7085   28.9030 N   0  0  0  0  0  0  0  0  0  0  0  0
    3.1176  -10.3555   29.9916 N   0  0  0  0  0  0  0  0  0  0  0  0
   -0.2366   -5.4740   27.0832 C   0  0  0  0  0  0  0  0  0  0  0  0
    3.2248   -7.1872   27.4509 C   0  0  0  0  0  0  0  0  0  0  0  0
    5.4819   -8.7373   27.7760 N   0  0  0  0  0  0  0  0  0  0  0  0
   -1.7372  -13.3639   18.7529 C   0  0  0  0  0  0  0  0  0  0  0  0
    0.7544   -7.9240   16.2215 C   0  0  0  0  0  0  0  0  0  0  0  0
   -0.2519  -11.1933   17.7549 C   0  0  0  0  0  0  0  0  0  0  0  0
    5.3537  -10.6333   29.8025 O   0  0  0  0  0  0  0  0  0  0  0  0
    2.1151   -4.9232   27.1371 C   0  0  0  0  0  0  0  0  0  0  0  0
    0.4992  -10.1382   17.2905 C   0  0  0  0  0  0  0  0  0  0  0  0
    4.2785   -9.0359   28.5088 C   0  0  0  0  0  0  0  0  0  0  0  0
  1  7  4  0
  1 22  4  0
  2 17  4  0
  2 20  4  0
  2 28  4  0
  3  6  1  0
  3 19  1  0
  4 19  1  0
  4 26  1  0
  5 17  4  0
  5 18  4  0
  6 20  1  0
  6 26  1  0
  7 24  4  0
  8 15  4  0
  8 24  4  0
  9 14  4  0
  9 21  4  0
 10 12  4  0
 10 27  4  0
 11 12  4  0
 11 23  4  0
 13 23  4  0
 13 27  4  0
 14 20  4  0
 15 22  4  0
 16 18  4  0
 16 25  2  0
 16 28  4  0
 21 28  4  0
 24 27  1  0
M  END
$$$$

 Created by Python create_sdf_string function

 28 47  0  0  0  0  0  0  0  0999 V2000
   -0.3235  -13.6600   18.2711 C   0  0  0  0  0  0  0  0  0  0  0  0
    3.1940   -8.2858   28.6603 C   0  0  0  0  0  0  0  0  0  0  0  0
    0.2581   -6.7501   27.4617 C   0  0  0  0  0  0  0  0  0  0  0  0
    2.1710  -10.0223   29.4822 C   0  0  0  0  0  0  0  0  0  0  0  0
    2.4533   -6.4946   27.0070 C   0  0  0  0  0  0  0  0  0  0  0  0
    0.2406  -12.4977   17.6135 C   0  0  0  0  0  0  0  0  0  0  0  0
   -1.7205  -10.8183   18.7096 C   0  0  0  0  0  0  0  0  0  0  0  0
    5.5357   -7.7240   26.9177 C   0  0  0  0  0  0  0  0  0  0  0  0
    2.0813   -8.0054   16.2227 F   0  0  0  0  0  0  0  0  0  0  0  0
    2.6250   -9.0920   17.0121 C   0  0  0  0  0  0  0  0  0  0  0  0
   -0.1514   -8.9658   16.7362 C   0  0  0  0  0  0  0  0  0  0  0  0
    4.8015   -6.8616   27.5554 C   0  0  0  0  0  0  0  0  0  0  0  0
   -2.2156  -12.0471   19.1807 C   0  0  0  0  0  0  0  0  0  0  0  0
    4.2269  -10.0265   29.2191 C   0  0  0  0  0  0  0  0  0  0  0  0
    3.0990  -10.2910   30.2058 N   0  0  0  0  0  0  0  0  0  0  0  0
   -0.0477   -5.5490   27.2620 N   0  0  0  0  0  0  0  0  0  0  0  0
    3.4606   -7.2654   27.2473 C   0  0  0  0  0  0  0  0  0  0  0  0
    5.3487   -8.4829   28.0985 N   0  0  0  0  0  0  0  0  0  0  0  0
   -1.6708  -13.1908   18.9503 C   0  0  0  0  0  0  0  0  0  0  0  0
    0.6856   -8.0497   16.3097 C   0  0  0  0  0  0  0  0  0  0  0  0
   -0.4199  -11.0312   17.4662 C   0  0  0  0  0  0  0  0  0  0  0  0
    5.3712  -10.5256   29.8628 O   0  0  0  0  0  0  0  0  0  0  0  0
    2.2966   -4.9519   27.3423 S   0  0  0  0  0  0  0  0  0  0  0  0
    0.4010  -10.3575   17.3924 C   0  0  0  0  0  0  0  0  0  0  0  0
    4.3773   -9.0408   28.5649 C   0  0  0  0  0  0  0  0  0  0  0  0
    0.7041   -4.3283   27.2597 He  0  0  0  0  0  0  0  0  0  0  0  0
    1.7796  -10.3211   17.4548 He  0  0  0  0  0  0  0  0  0  0  0  0
    1.6031   -8.8867   28.8444 He  0  0  0  0  0  0  0  0  0  0  0  0
  1  6  4  0
  1 19  4  0
  2 17  4  0
  2 18  2  0
  2 24  2  0
  2 25  4  0
  3  6  2  0
  3 16  1  0
  3 18  2  0
  3 22  2  0
  3 25  4  0
  4 11  1  0
  5 18  2  0
  5 20  4  0
  5 23  1  0
  6  8  3  0
  6 10  4  0
  6 17  2  0
  6 21  4  0
  7 13  1  0
  7 17  1  0
  7 19  4  0
  7 21  4  0
  8 11  2  0
  8 12  4  0
  8 18  4  0
  9 10  4  0
  9 16  4  0
  9 20  4  0
 11 14  3  0
 11 20  4  0
 11 24  4  0
 12 17  4  0
 12 19  3  0
 12 20  3  0
 12 22  1  0
 13 19  2  0
 14 15  3  0
 14 20  4  0
 14 22  2  0
 14 25  4  0
 17 22  1  0
 18 25  4  0
 19 23  3  0
 19 24  4  0
 21 24  1  0
 22 23  2  0
M  END
$$$$

 Created by Python create_sdf_string function

 28 31  0  0  0  0  0  0  0  0999 V2000
   -0.5836  -13.5824   18.3349 C   0  0  0  0  0  0  0  0  0  0  0  0
    3.1530   -8.3652   28.3285 C   0  0  0  0  0  0  0  0  0  0  0  0
    0.7032   -6.7122   27.3024 C   0  0  0  0  0  0  0  0  0  0  0  0
    0.8094   -4.3886   27.1793 C   0  0  0  0  0  0  0  0  0  0  0  0
    2.0115   -9.9196   29.6693 C   0  0  0  0  0  0  0  0  0  0  0  0
    2.0696   -6.4299   27.1436 C   0  0  0  0  0  0  0  0  0  0  0  0
    0.1657  -12.5094   17.7362 C   0  0  0  0  0  0  0  0  0  0  0  0
   -1.5249  -10.9478   18.4448 C   0  0  0  0  0  0  0  0  0  0  0  0
    5.5838   -7.5814   27.2384 C   0  0  0  0  0  0  0  0  0  0  0  0
    1.8621  -10.1980   17.3662 C   0  0  0  0  0  0  0  0  0  0  0  0
    2.0389   -8.0585   16.3521 C   0  0  0  0  0  0  0  0  0  0  0  0
    2.6176   -9.1437   16.8769 C   0  0  0  0  0  0  0  0  0  0  0  0
   -0.1327   -8.9951   16.7905 C   0  0  0  0  0  0  0  0  0  0  0  0
    4.4520   -6.8522   27.0144 C   0  0  0  0  0  0  0  0  0  0  0  0
   -2.2445  -12.0674   19.0872 C   0  0  0  0  0  0  0  0  0  0  0  0
    4.3262  -10.1133   29.5524 C   0  0  0  0  0  0  0  0  0  0  0  0
    1.9587   -8.8589   28.8298 N   0  0  0  0  0  0  0  0  0  0  0  0
    3.1366  -10.4964   29.9876 N   0  0  0  0  0  0  0  0  0  0  0  0
   -0.1097   -5.4810   27.2069 C   0  0  0  0  0  0  0  0  0  0  0  0
    3.3125   -7.2382   27.5134 C   0  0  0  0  0  0  0  0  0  0  0  0
    5.5353   -8.6800   27.9971 N   0  0  0  0  0  0  0  0  0  0  0  0
   -1.7284  -13.2862   19.0041 C   0  0  0  0  0  0  0  0  0  0  0  0
    0.6831   -7.9824   16.2718 C   0  0  0  0  0  0  0  0  0  0  0  0
   -0.2891  -11.1837   17.8303 C   0  0  0  0  0  0  0  0  0  0  0  0
    5.3598  -10.6627   29.9132 O   0  0  0  0  0  0  0  0  0  0  0  0
    2.2303   -4.9435   27.2089 C   0  0  0  0  0  0  0  0  0  0  0  0
    0.4570  -10.1504   17.3513 C   0  0  0  0  0  0  0  0  0  0  0  0
    4.3150   -9.0292   28.6195 C   0  0  0  0  0  0  0  0  0  0  0  0
  1  7  4  0
  1 22  4  0
  2 17  4  0
  2 20  4  0
  2 28  4  0
  3  6  1  0
  3 19  1  0
  4 19  1  0
  4 26  1  0
  5 17  4  0
  5 18  4  0
  6 20  1  0
  6 26  1  0
  7 24  4  0
  8 15  4  0
  8 24  4  0
  9 14  4  0
  9 21  4  0
 10 12  4  0
 10 27  4  0
 11 12  4  0
 11 23  4  0
 13 23  4  0
 13 27  4  0
 14 20  4  0
 15 22  4  0
 16 18  4  0
 16 25  2  0
 16 28  4  0
 21 28  4  0
 24 27  1  0
M  END
$$$$

 Created by Python create_sdf_string function

 28 33  0  0  0  0  0  0  0  0999 V2000
   -0.7484  -13.3358   18.2619 C   0  0  0  0  0  0  0  0  0  0  0  0
    3.1746   -8.5204   28.5822 C   0  0  0  0  0  0  0  0  0  0  0  0
    0.4417   -6.6814   27.2563 C   0  0  0  0  0  0  0  0  0  0  0  0
    0.5299   -4.4264   27.6216 C   0  0  0  0  0  0  0  0  0  0  0  0
    0.2795  -12.4793   17.7322 C   0  0  0  0  0  0  0  0  0  0  0  0
   -1.5090  -10.7558   18.1012 C   0  0  0  0  0  0  0  0  0  0  0  0
    5.6114   -7.8225   27.1684 C   0  0  0  0  0  0  0  0  0  0  0  0
    2.0539  -10.1670   17.3547 C   0  0  0  0  0  0  0  0  0  0  0  0
    2.1971   -8.1512   16.4429 C   0  0  0  0  0  0  0  0  0  0  0  0
    2.2534   -9.0428   16.8291 C   0  0  0  0  0  0  0  0  0  0  0  0
   -0.2020   -8.7814   16.6751 C   0  0  0  0  0  0  0  0  0  0  0  0
   -1.9199  -12.1640   19.1838 C   0  0  0  0  0  0  0  0  0  0  0  0
    4.3567  -10.1526   29.3852 C   0  0  0  0  0  0  0  0  0  0  0  0
    2.4710   -8.8866   28.8852 N   0  0  0  0  0  0  0  0  0  0  0  0
    3.0923  -10.5102   29.7797 N   0  0  0  0  0  0  0  0  0  0  0  0
   -0.3280   -5.6660   27.1651 C   0  0  0  0  0  0  0  0  0  0  0  0
    3.1493   -7.3098   27.5253 C   0  0  0  0  0  0  0  0  0  0  0  0
    5.5063   -8.4501   28.0052 N   0  0  0  0  0  0  0  0  0  0  0  0
   -2.0750  -12.7035   18.7319 C   0  0  0  0  0  0  0  0  0  0  0  0
    0.6682   -7.9150   16.2507 C   0  0  0  0  0  0  0  0  0  0  0  0
   -0.5250  -11.3010   18.3425 C   0  0  0  0  0  0  0  0  0  0  0  0
    5.3597  -10.6605   29.6757 O   0  0  0  0  0  0  0  0  0  0  0  0
    0.3024  -10.3143   17.6473 C   0  0  0  0  0  0  0  0  0  0  0  0
    4.3814   -9.0176   28.4884 C   0  0  0  0  0  0  0  0  0  0  0  0
    1.9060   -9.6610   29.7847 He  0  0  0  0  0  0  0  0  0  0  0  0
    2.0061   -6.2019   26.8856 He  0  0  0  0  0  0  0  0  0  0  0  0
    4.1990   -6.9400   26.9739 He  0  0  0  0  0  0  0  0  0  0  0  0
    2.3932   -5.1354   27.7036 He  0  0  0  0  0  0  0  0  0  0  0  0
  1  5  4  0
  1 19  4  0
  2 10  2  0
  2 14  4  0
  2 17  4  0
  2 20  2  0
  2 24  4  0
  3 16  1  0
  3 17  2  0
  5 16  1  0
  5 21  4  0
  5 23  1  0
  6 12  4  0
  6 21  4  0
  6 24  1  0
  7 14  4  0
  7 18  4  0
  8 10  4  0
  8 23  4  0
  9 10  4  0
  9 18  4  0
  9 20  4  0
 10 16  3  0
 11 20  4  0
 11 23  4  0
 12 19  4  0
 13 15  4  0
 13 22  2  0
 13 24  4  0
 14 24  3  0
 15 16  2  0
 15 23  2  0
 18 24  4  0
M  END
$$$$

 Created by Python create_sdf_string function

 28 31  0  0  0  0  0  0  0  0999 V2000
   -0.7379  -13.4901   18.3386 C   0  0  0  0  0  0  0  0  0  0  0  0
    3.1302   -8.3375   28.3379 C   0  0  0  0  0  0  0  0  0  0  0  0
    0.6531   -6.8137   27.1304 C   0  0  0  0  0  0  0  0  0  0  0  0
    0.7057   -4.4399   27.5509 C   0  0  0  0  0  0  0  0  0  0  0  0
    2.0358   -9.8013   29.7045 C   0  0  0  0  0  0  0  0  0  0  0  0
    2.0223   -6.4065   27.1498 C   0  0  0  0  0  0  0  0  0  0  0  0
    0.0936  -12.4811   17.8256 C   0  0  0  0  0  0  0  0  0  0  0  0
   -1.5466  -10.8176   18.5146 C   0  0  0  0  0  0  0  0  0  0  0  0
    5.4838   -7.5937   27.1119 C   0  0  0  0  0  0  0  0  0  0  0  0
    1.8758  -10.1709   17.3856 C   0  0  0  0  0  0  0  0  0  0  0  0
    2.0544   -8.0526   16.3098 C   0  0  0  0  0  0  0  0  0  0  0  0
    2.6364   -9.1347   16.8383 C   0  0  0  0  0  0  0  0  0  0  0  0
   -0.1232   -8.9167   16.8634 C   0  0  0  0  0  0  0  0  0  0  0  0
    4.3334   -6.9220   26.8707 N   0  0  0  0  0  0  0  0  0  0  0  0
   -2.3674  -11.9092   18.9561 C   0  0  0  0  0  0  0  0  0  0  0  0
    4.3395  -10.1398   29.4346 C   0  0  0  0  0  0  0  0  0  0  0  0
    1.9935   -8.7489   28.9459 N   0  0  0  0  0  0  0  0  0  0  0  0
    3.1613  -10.4813   29.9455 N   0  0  0  0  0  0  0  0  0  0  0  0
   -0.2312   -5.5414   27.1445 C   0  0  0  0  0  0  0  0  0  0  0  0
    3.2033   -7.2293   27.4442 C   0  0  0  0  0  0  0  0  0  0  0  0
    5.5064   -8.6314   27.9514 N   0  0  0  0  0  0  0  0  0  0  0  0
   -1.9127  -13.1737   18.8875 C   0  0  0  0  0  0  0  0  0  0  0  0
    0.7022   -7.9319   16.3004 C   0  0  0  0  0  0  0  0  0  0  0  0
   -0.3025  -11.1098   17.9090 C   0  0  0  0  0  0  0  0  0  0  0  0
    5.3490  -10.7311   29.7032 O   0  0  0  0  0  0  0  0  0  0  0  0
    2.0812   -4.9815   27.5770 C   0  0  0  0  0  0  0  0  0  0  0  0
    0.4571  -10.0947   17.3867 C   0  0  0  0  0  0  0  0  0  0  0  0
    4.3114   -9.0154   28.5548 C   0  0  0  0  0  0  0  0  0  0  0  0
  1  7  4  0
  1 22  4  0
  2 17  4  0
  2 20  4  0
  2 28  4  0
  3  6  1  0
  3 19  1  0
  4 19  1  0
  4 26  1  0
  5 17  4  0
  5 18  4  0
  6 20  1  0
  6 26  1  0
  7 24  4  0
  8 15  4  0
  8 24  4  0
  9 14  4  0
  9 21  4  0
 10 12  4  0
 10 27  4  0
 11 12  4  0
 11 23  4  0
 13 23  4  0
 13 27  4  0
 14 20  4  0
 15 22  4  0
 16 18  4  0
 16 25  2  0
 16 28  4  0
 21 28  4  0
 24 27  1  0
M  END
$$$$

 Created by Python create_sdf_string function

 28 48  0  0  0  0  0  0  0  0999 V2000
   -0.8317  -13.4869   18.6106 C   0  0  0  0  0  0  0  0  0  0  0  0
    2.8053   -8.4245   28.4907 C   0  0  0  0  0  0  0  0  0  0  0  0
    0.7465   -7.0261   26.9936 Cl  0  0  0  0  0  0  0  0  0  0  0  0
    1.9172   -9.5787   29.3168 C   0  0  0  0  0  0  0  0  0  0  0  0
    1.4181   -6.3917   27.0814 C   0  0  0  0  0  0  0  0  0  0  0  0
    0.1723  -12.3630   17.9183 C   0  0  0  0  0  0  0  0  0  0  0  0
   -1.2828  -10.6210   18.5975 C   0  0  0  0  0  0  0  0  0  0  0  0
    5.4097   -7.4538   27.1677 C   0  0  0  0  0  0  0  0  0  0  0  0
    1.7650  -10.1395   17.3867 C   0  0  0  0  0  0  0  0  0  0  0  0
    1.9777   -7.9254   16.3130 C   0  0  0  0  0  0  0  0  0  0  0  0
    2.5036   -8.8709   16.8004 P   0  0  0  0  0  0  0  0  0  0  0  0
   -0.3770   -8.8782   16.9802 C   0  0  0  0  0  0  0  0  0  0  0  0
    4.4181   -7.1387   27.0188 N   0  0  0  0  0  0  0  0  0  0  0  0
   -2.4084  -12.1249   19.0499 C   0  0  0  0  0  0  0  0  0  0  0  0
    4.4062  -10.2473   29.3806 C   0  0  0  0  0  0  0  0  0  0  0  0
    1.3649   -8.4220   29.3929 N   0  0  0  0  0  0  0  0  0  0  0  0
    3.1749  -10.3036   29.8508 N   0  0  0  0  0  0  0  0  0  0  0  0
   -0.3314   -5.5818   27.0476 C   0  0  0  0  0  0  0  0  0  0  0  0
    3.1117   -7.0236   27.6134 C   0  0  0  0  0  0  0  0  0  0  0  0
   -2.1761  -13.0232   19.3688 C   0  0  0  0  0  0  0  0  0  0  0  0
    0.6261   -8.1257   16.2098 C   0  0  0  0  0  0  0  0  0  0  0  0
   -0.0194  -10.6869   17.7249 C   0  0  0  0  0  0  0  0  0  0  0  0
    5.4230  -10.9366   29.9219 O   0  0  0  0  0  0  0  0  0  0  0  0
    2.2894   -4.9239   27.9772 C   0  0  0  0  0  0  0  0  0  0  0  0
    4.5195   -8.8335   28.5388 C   0  0  0  0  0  0  0  0  0  0  0  0
    0.4187   -4.7868   27.4401 He  0  0  0  0  0  0  0  0  0  0  0  0
    5.5210   -8.5074   28.0098 He  0  0  0  0  0  0  0  0  0  0  0  0
    0.7340  -10.1161   17.2709 He  0  0  0  0  0  0  0  0  0  0  0  0
  1 20  1  0
  2  8  4  0
  2 12  3  0
  2 15  1  0
  2 16  4  0
  2 19  4  0
  2 20  4  0
  2 21  2  0
  2 25  4  0
  3  5  1  0
  3  8  3  0
  3 18  3  0
  3 21  2  0
  3 22  2  0
  4  7  4  0
  4 16  4  0
  4 17  4  0
  5  9  1  0
  5 19  1  0
  5 22  3  0
  5 24  1  0
  6 12  4  0
  6 25  4  0
  7  8  1  0
  7 11  2  0
  7 14  4  0
  7 20  4  0
  7 22  4  0
  8 13  4  0
  8 19  3  0
  9 11  4  0
 10 11  4  0
 10 17  4  0
 10 21  4  0
 11 19  4  0
 11 20  1  0
 12 21  4  0
 13 19  1  0
 13 25  1  0
 14 16  1  0
 14 20  4  0
 15 17  4  0
 15 23  2  0
 15 24  4  0
 15 25  4  0
 16 19  2  0
 21 24  2  0
 22 23  4  0
M  END
$$$$

 Created by Python create_sdf_string function

 28 31  0  0  0  0  0  0  0  0999 V2000
   -0.7023  -13.4208   18.5780 C   0  0  0  0  0  0  0  0  0  0  0  0
    3.0767   -8.2995   28.3986 C   0  0  0  0  0  0  0  0  0  0  0  0
    0.6566   -6.8401   26.9856 C   0  0  0  0  0  0  0  0  0  0  0  0
    0.5350   -4.4794   27.4912 C   0  0  0  0  0  0  0  0  0  0  0  0
    1.9911   -9.7561   29.7374 C   0  0  0  0  0  0  0  0  0  0  0  0
    1.9522   -6.4092   27.2777 C   0  0  0  0  0  0  0  0  0  0  0  0
    0.1299  -12.3845   18.0479 C   0  0  0  0  0  0  0  0  0  0  0  0
   -1.5630  -10.7750   18.5049 C   0  0  0  0  0  0  0  0  0  0  0  0
    5.4155   -7.5043   27.1292 C   0  0  0  0  0  0  0  0  0  0  0  0
    1.8542  -10.0702   17.3491 C   0  0  0  0  0  0  0  0  0  0  0  0
    1.9824   -7.9938   16.2595 C   0  0  0  0  0  0  0  0  0  0  0  0
    2.5922   -9.0521   16.7784 C   0  0  0  0  0  0  0  0  0  0  0  0
   -0.1768   -8.9019   16.8355 C   0  0  0  0  0  0  0  0  0  0  0  0
    4.2460   -6.8139   26.9653 N   0  0  0  0  0  0  0  0  0  0  0  0
   -2.3656  -11.8238   19.0953 C   0  0  0  0  0  0  0  0  0  0  0  0
    4.2798  -10.1345   29.4841 C   0  0  0  0  0  0  0  0  0  0  0  0
    1.8671   -8.6868   28.9910 N   0  0  0  0  0  0  0  0  0  0  0  0
    3.0672  -10.4744   29.9500 N   0  0  0  0  0  0  0  0  0  0  0  0
   -0.2980   -5.5840   26.9974 C   0  0  0  0  0  0  0  0  0  0  0  0
    3.1341   -7.1802   27.5481 C   0  0  0  0  0  0  0  0  0  0  0  0
    5.4801   -8.5640   28.0094 N   0  0  0  0  0  0  0  0  0  0  0  0
   -1.9130  -13.0859   19.0967 C   0  0  0  0  0  0  0  0  0  0  0  0
    0.6252   -7.8871   16.2744 C   0  0  0  0  0  0  0  0  0  0  0  0
   -0.3013  -11.0430   17.9813 C   0  0  0  0  0  0  0  0  0  0  0  0
    5.2534  -10.7701   29.7831 O   0  0  0  0  0  0  0  0  0  0  0  0
    1.9290   -4.9712   27.7146 C   0  0  0  0  0  0  0  0  0  0  0  0
    0.4499  -10.0398   17.4060 C   0  0  0  0  0  0  0  0  0  0  0  0
    4.2669   -8.9754   28.6305 C   0  0  0  0  0  0  0  0  0  0  0  0
  1  7  4  0
  1 22  4  0
  2 17  4  0
  2 20  4  0
  2 28  4  0
  3  6  1  0
  3 19  1  0
  4 19  1  0
  4 26  1  0
  5 17  4  0
  5 18  4  0
  6 20  1  0
  6 26  1  0
  7 24  4  0
  8 15  4  0
  8 24  4  0
  9 14  4  0
  9 21  4  0
 10 12  4  0
 10 27  4  0
 11 12  4  0
 11 23  4  0
 13 23  4  0
 13 27  4  0
 14 20  4  0
 15 22  4  0
 16 18  4  0
 16 25  2  0
 16 28  4  0
 21 28  4  0
 24 27  1  0
M  END
$$$$

 Created by Python create_sdf_string function

 28 46  0  0  0  0  0  0  0  0999 V2000
   -0.7715  -13.5268   18.6873 C   0  0  0  0  0  0  0  0  0  0  0  0
    3.1964   -8.3584   28.2569 C   0  0  0  0  0  0  0  0  0  0  0  0
    0.7498   -6.9710   27.5351 C   0  0  0  0  0  0  0  0  0  0  0  0
    0.2845   -4.6335   27.4857 C   0  0  0  0  0  0  0  0  0  0  0  0
    1.8429   -6.5214   27.2942 C   0  0  0  0  0  0  0  0  0  0  0  0
    0.3102  -12.0972   17.6900 C   0  0  0  0  0  0  0  0  0  0  0  0
   -1.3641  -11.0973   18.3542 C   0  0  0  0  0  0  0  0  0  0  0  0
    1.8916  -10.0325   17.3754 C   0  0  0  0  0  0  0  0  0  0  0  0
    1.8540   -7.8646   16.1858 C   0  0  0  0  0  0  0  0  0  0  0  0
    2.6661   -8.8997   16.6439 C   0  0  0  0  0  0  0  0  0  0  0  0
   -0.0678   -9.1004   16.7949 C   0  0  0  0  0  0  0  0  0  0  0  0
    4.0820   -6.6179   26.9293 N   0  0  0  0  0  0  0  0  0  0  0  0
   -2.4198  -11.7923   19.0498 C   0  0  0  0  0  0  0  0  0  0  0  0
    4.6543  -10.1320   29.6071 B   0  0  0  0  0  0  0  0  0  0  0  0
    1.8195   -9.1133   29.0579 N   0  0  0  0  0  0  0  0  0  0  0  0
    2.9751  -10.3245   30.0420 N   0  0  0  0  0  0  0  0  0  0  0  0
    2.9123   -7.1890   27.5389 Cl  0  0  0  0  0  0  0  0  0  0  0  0
   -1.7756  -13.2002   19.1913 C   0  0  0  0  0  0  0  0  0  0  0  0
    0.6465   -7.7111   16.1997 C   0  0  0  0  0  0  0  0  0  0  0  0
   -0.3982  -11.3267   18.0028 C   0  0  0  0  0  0  0  0  0  0  0  0
    5.1671  -10.7166   29.9055 O   0  0  0  0  0  0  0  0  0  0  0  0
    1.7603   -4.7540   27.4299 C   0  0  0  0  0  0  0  0  0  0  0  0
    0.4866   -9.8043   17.3190 C   0  0  0  0  0  0  0  0  0  0  0  0
    4.1090   -8.9290   28.7742 C   0  0  0  0  0  0  0  0  0  0  0  0
    2.1304   -9.7592   29.7371 He  0  0  0  0  0  0  0  0  0  0  0  0
    5.4902   -7.5337   27.0211 He  0  0  0  0  0  0  0  0  0  0  0  0
   -0.2405   -5.1705   26.8832 He  0  0  0  0  0  0  0  0  0  0  0  0
    5.3209   -8.6034   27.9632 He  0  0  0  0  0  0  0  0  0  0  0  0
  1  5  2  0
  1 18  4  0
  2 10  2  0
  2 12  2  0
  2 15  4  0
  2 17  4  0
  2 24  4  0
  3  5  1  0
  3  8  3  0
  3 19  1  0
  4  6  4  0
  4 19  2  0
  4 22  1  0
  5  7  1  0
  5 14  2  0
  5 17  1  0
  5 22  1  0
  6  9  1  0
  6 20  2  0
  7 13  4  0
  7 16  2  0
  7 18  2  0
  7 20  4  0
  8 10  4  0
  8 17  4  0
  8 23  4  0
  9 10  4  0
  9 19  4  0
  9 22  3  0
 10 11  3  0
 11 12  1  0
 11 19  4  0
 11 23  4  0
 12 17  4  0
 12 21  1  0
 13 15  3  0
 14 16  4  0
 14 20  3  0
 14 21  2  0
 14 24  4  0
 16 21  2  0
 18 21  4  0
 18 22  3  0
 20 23  1  0
 20 24  1  0
 22 24  3  0
M  END
$$$$

 Created by Python create_sdf_string function

 28 31  0  0  0  0  0  0  0  0999 V2000
   -0.5723  -13.4617   18.5551 C   0  0  0  0  0  0  0  0  0  0  0  0
    3.0398   -8.3566   28.4035 C   0  0  0  0  0  0  0  0  0  0  0  0
    0.5084   -6.8146   27.2997 C   0  0  0  0  0  0  0  0  0  0  0  0
    0.5149   -4.4209   27.3973 C   0  0  0  0  0  0  0  0  0  0  0  0
    2.0131   -9.8388   29.7881 C   0  0  0  0  0  0  0  0  0  0  0  0
    1.8530   -6.4358   27.3101 C   0  0  0  0  0  0  0  0  0  0  0  0
    0.2231  -12.3944   17.9951 C   0  0  0  0  0  0  0  0  0  0  0  0
   -1.5478  -10.8455   18.3942 C   0  0  0  0  0  0  0  0  0  0  0  0
    5.3224   -7.4902   27.1057 C   0  0  0  0  0  0  0  0  0  0  0  0
    1.8711  -10.0330   17.2790 C   0  0  0  0  0  0  0  0  0  0  0  0
    1.9565   -7.9198   16.2015 C   0  0  0  0  0  0  0  0  0  0  0  0
    2.6002   -8.9676   16.7233 C   0  0  0  0  0  0  0  0  0  0  0  0
   -0.1663   -8.8783   16.8185 C   0  0  0  0  0  0  0  0  0  0  0  0
    4.1606   -6.8169   26.9467 N   0  0  0  0  0  0  0  0  0  0  0  0
   -2.3107  -11.9003   18.9982 C   0  0  0  0  0  0  0  0  0  0  0  0
    4.3305  -10.0680   29.5403 C   0  0  0  0  0  0  0  0  0  0  0  0
    1.9060   -8.8303   28.9661 N   0  0  0  0  0  0  0  0  0  0  0  0
    3.1600  -10.4082   30.1005 N   0  0  0  0  0  0  0  0  0  0  0  0
   -0.3495   -5.5367   26.9805 C   0  0  0  0  0  0  0  0  0  0  0  0
    3.0557   -7.2220   27.5628 C   0  0  0  0  0  0  0  0  0  0  0  0
    5.4153   -8.5677   27.9663 N   0  0  0  0  0  0  0  0  0  0  0  0
   -1.8017  -13.1643   19.0476 C   0  0  0  0  0  0  0  0  0  0  0  0
    0.5962   -7.8519   16.2185 C   0  0  0  0  0  0  0  0  0  0  0  0
   -0.2617  -11.0700   17.8870 C   0  0  0  0  0  0  0  0  0  0  0  0
    5.3708  -10.6250   29.8404 O   0  0  0  0  0  0  0  0  0  0  0  0
    1.9388   -4.9277   27.3873 C   0  0  0  0  0  0  0  0  0  0  0  0
    0.4602  -10.0258   17.3371 C   0  0  0  0  0  0  0  0  0  0  0  0
    4.2541   -8.9845   28.6141 C   0  0  0  0  0  0  0  0  0  0  0  0
  1  7  4  0
  1 22  4  0
  2 17  4  0
  2 20  4  0
  2 28  4  0
  3  6  1  0
  3 19  1  0
  4 19  1  0
  4 26  1  0
  5 17  4  0
  5 18  4  0
  6 20  1  0
  6 26  1  0
  7 24  4  0
  8 15  4  0
  8 24  4  0
  9 14  4  0
  9 21  4  0
 10 12  4  0
 10 27  4  0
 11 12  4  0
 11 23  4  0
 13 23  4  0
 13 27  4  0
 14 20  4  0
 15 22  4  0
 16 18  4  0
 16 25  2  0
 16 28  4  0
 21 28  4  0
 24 27  1  0
M  END
$$$$

 Created by Python create_sdf_string function

 28 56  0  0  0  0  0  0  0  0999 V2000
   -0.6749  -13.3329   18.6736 C   0  0  0  0  0  0  0  0  0  0  0  0
    3.0251   -8.5218   28.1786 C   0  0  0  0  0  0  0  0  0  0  0  0
    0.6526   -6.5257   27.2606 C   0  0  0  0  0  0  0  0  0  0  0  0
    0.6395   -4.0910   27.3695 F   0  0  0  0  0  0  0  0  0  0  0  0
    2.2384   -9.8288   30.0189 C   0  0  0  0  0  0  0  0  0  0  0  0
    1.8954   -6.5772   27.2099 C   0  0  0  0  0  0  0  0  0  0  0  0
    0.2352  -12.2074   18.1639 C   0  0  0  0  0  0  0  0  0  0  0  0
   -1.3007  -10.6840   18.3149 C   0  0  0  0  0  0  0  0  0  0  0  0
    5.4050   -7.4666   27.1976 C   0  0  0  0  0  0  0  0  0  0  0  0
    1.7464  -10.1507   17.3601 C   0  0  0  0  0  0  0  0  0  0  0  0
    2.0121   -7.8981   15.9193 C   0  0  0  0  0  0  0  0  0  0  0  0
    2.6499   -9.0450   16.7024 C   0  0  0  0  0  0  0  0  0  0  0  0
   -0.2659   -9.0828   16.7183 C   0  0  0  0  0  0  0  0  0  0  0  0
    3.8120   -6.6380   27.0801 N   0  0  0  0  0  0  0  0  0  0  0  0
   -2.3035  -11.8750   18.9009 C   0  0  0  0  0  0  0  0  0  0  0  0
    4.3687  -10.2050   29.6108 C   0  0  0  0  0  0  0  0  0  0  0  0
    2.1734   -8.7264   29.3134 N   0  0  0  0  0  0  0  0  0  0  0  0
    3.2523  -10.5521   30.1282 N   0  0  0  0  0  0  0  0  0  0  0  0
   -0.7683   -5.2518   26.9547 C   0  0  0  0  0  0  0  0  0  0  0  0
    2.9138   -7.1793   27.5903 N   0  0  0  0  0  0  0  0  0  0  0  0
    5.6735   -8.5181   28.0487 N   0  0  0  0  0  0  0  0  0  0  0  0
   -1.6382  -12.9892   18.9067 C   0  0  0  0  0  0  0  0  0  0  0  0
   -0.6033  -10.9956   18.0599 C   0  0  0  0  0  0  0  0  0  0  0  0
    5.2359  -10.6926   29.8292 O   0  0  0  0  0  0  0  0  0  0  0  0
    1.8900   -4.9044   27.5116 C   0  0  0  0  0  0  0  0  0  0  0  0
    0.1900   -9.7649   17.3488 C   0  0  0  0  0  0  0  0  0  0  0  0
    4.2359   -9.1483   28.7253 C   0  0  0  0  0  0  0  0  0  0  0  0
    0.6050   -7.6682   16.3127 He  0  0  0  0  0  0  0  0  0  0  0  0
  1  7  4  0
  1 13  1  0
  1 23  1  0
  2  9  3  0
  2 10  1  0
  2 16  1  0
  2 17  4  0
  2 20  2  0
  2 23  2  0
  2 27  4  0
  3 19  1  0
  4 11  2  0
  4 19  3  0
  4 20  1  0
  4 25  1  0
  4 26  1  0
  5 14  2  0
  5 16  1  0
  5 17  4  0
  5 18  1  0
  5 21  3  0
  5 23  4  0
  6 15  3  0
  6 17  4  0
  6 18  3  0
  6 20  1  0
  6 26  3  0
  7 22  2  0
  8 15  4  0
  8 23  4  0
  9 14  4  0
  9 21  4  0
  9 26  1  0
 10 12  4  0
 10 23  3  0
 10 24  1  0
 11 12  4  0
 11 14  2  0
 11 17  4  0
 12 14  2  0
 13 19  2  0
 13 20  2  0
 13 26  4  0
 14 15  3  0
 14 20  4  0
 15 22  4  0
 16 18  4  0
 16 24  4  0
 16 27  4  0
 17 25  3  0
 18 25  2  0
 19 20  2  0
 19 22  4  0
 19 26  1  0
 21 27  4  0
 23 26  1  0
M  END
$$$$

 Created by Python create_sdf_string function

 28 31  0  0  0  0  0  0  0  0999 V2000
   -0.5571  -13.3410   18.6695 C   0  0  0  0  0  0  0  0  0  0  0  0
    3.0759   -8.3220   28.5034 C   0  0  0  0  0  0  0  0  0  0  0  0
    0.5460   -6.7411   27.2430 C   0  0  0  0  0  0  0  0  0  0  0  0
    0.6323   -4.3220   27.2540 C   0  0  0  0  0  0  0  0  0  0  0  0
    2.1211   -9.7999   29.9447 C   0  0  0  0  0  0  0  0  0  0  0  0
    1.8426   -6.4237   27.3926 C   0  0  0  0  0  0  0  0  0  0  0  0
    0.2449  -12.2941   18.1419 C   0  0  0  0  0  0  0  0  0  0  0  0
   -1.6168  -10.7814   18.3349 C   0  0  0  0  0  0  0  0  0  0  0  0
    5.2923   -7.4650   27.1959 C   0  0  0  0  0  0  0  0  0  0  0  0
    1.8503  -10.0449   17.2648 C   0  0  0  0  0  0  0  0  0  0  0  0
    1.9471   -7.9634   16.1234 C   0  0  0  0  0  0  0  0  0  0  0  0
    2.5809   -9.0224   16.6462 C   0  0  0  0  0  0  0  0  0  0  0  0
   -0.1805   -8.8329   16.8370 C   0  0  0  0  0  0  0  0  0  0  0  0
    4.1034   -6.8250   27.0204 N   0  0  0  0  0  0  0  0  0  0  0  0
   -2.3610  -11.8702   18.8929 C   0  0  0  0  0  0  0  0  0  0  0  0
    4.4026  -10.0861   29.5158 C   0  0  0  0  0  0  0  0  0  0  0  0
    1.9830   -8.7853   29.1272 N   0  0  0  0  0  0  0  0  0  0  0  0
    3.2496  -10.4253   30.1362 N   0  0  0  0  0  0  0  0  0  0  0  0
   -0.3212   -5.4096   27.0221 C   0  0  0  0  0  0  0  0  0  0  0  0
    3.0322   -7.2095   27.6400 C   0  0  0  0  0  0  0  0  0  0  0  0
    5.4266   -8.5362   27.9656 N   0  0  0  0  0  0  0  0  0  0  0  0
   -1.8169  -13.0870   19.0204 C   0  0  0  0  0  0  0  0  0  0  0  0
    0.6051   -7.8763   16.1802 C   0  0  0  0  0  0  0  0  0  0  0  0
   -0.2938  -10.9911   17.9366 C   0  0  0  0  0  0  0  0  0  0  0  0
    5.4669  -10.6755   29.7128 O   0  0  0  0  0  0  0  0  0  0  0  0
    1.9427   -4.8971   27.4133 C   0  0  0  0  0  0  0  0  0  0  0  0
    0.4417   -9.9800   17.3704 C   0  0  0  0  0  0  0  0  0  0  0  0
    4.2810   -8.9575   28.6470 C   0  0  0  0  0  0  0  0  0  0  0  0
  1  7  4  0
  1 22  4  0
  2 17  4  0
  2 20  4  0
  2 28  4  0
  3  6  1  0
  3 19  1  0
  4 19  1  0
  4 26  1  0
  5 17  4  0
  5 18  4  0
  6 20  1  0
  6 26  1  0
  7 24  4  0
  8 15  4  0
  8 24  4  0
  9 14  4  0
  9 21  4  0
 10 12  4  0
 10 27  4  0
 11 12  4  0
 11 23  4  0
 13 23  4  0
 13 27  4  0
 14 20  4  0
 15 22  4  0
 16 18  4  0
 16 25  2  0
 16 28  4  0
 21 28  4  0
 24 27  1  0
M  END
$$$$

 Created by Python create_sdf_string function

 28 49  0  0  0  0  0  0  0  0999 V2000
   -0.7238  -13.6563   18.7596 C   0  0  0  0  0  0  0  0  0  0  0  0
    3.1399   -8.4332   28.3900 C   0  0  0  0  0  0  0  0  0  0  0  0
    0.3471   -6.6214   27.3734 C   0  0  0  0  0  0  0  0  0  0  0  0
    0.8868   -4.4698   27.6197 C   0  0  0  0  0  0  0  0  0  0  0  0
    1.5389   -6.6883   27.5020 C   0  0  0  0  0  0  0  0  0  0  0  0
    0.3296  -12.1624   18.1900 C   0  0  0  0  0  0  0  0  0  0  0  0
   -1.8276  -10.7850   18.4509 C   0  0  0  0  0  0  0  0  0  0  0  0
    5.1674   -7.6647   27.2061 C   0  0  0  0  0  0  0  0  0  0  0  0
    1.7067  -10.0948   17.0536 C   0  0  0  0  0  0  0  0  0  0  0  0
    1.9891   -7.9479   16.2060 C   0  0  0  0  0  0  0  0  0  0  0  0
    2.5603   -9.2307   16.6529 C   0  0  0  0  0  0  0  0  0  0  0  0
   -0.1876   -8.9961   16.9034 C   0  0  0  0  0  0  0  0  0  0  0  0
    3.9443   -7.2300   27.1912 N   0  0  0  0  0  0  0  0  0  0  0  0
   -2.2761  -11.7748   18.7260 C   0  0  0  0  0  0  0  0  0  0  0  0
    4.4401  -10.1707   29.4547 C   0  0  0  0  0  0  0  0  0  0  0  0
    1.6668   -8.8920   29.2688 N   0  0  0  0  0  0  0  0  0  0  0  0
    3.3164  -10.2383   30.0577 N   0  0  0  0  0  0  0  0  0  0  0  0
   -0.5692   -5.7562   26.8136 C   0  0  0  0  0  0  0  0  0  0  0  0
    3.0960   -7.1743   27.6414 C   0  0  0  0  0  0  0  0  0  0  0  0
    5.5962   -8.4994   28.1505 N   0  0  0  0  0  0  0  0  0  0  0  0
   -2.0453  -13.1040   19.1491 C   0  0  0  0  0  0  0  0  0  0  0  0
    0.4895   -7.9975   16.4426 C   0  0  0  0  0  0  0  0  0  0  0  0
   -0.6277  -11.1668   17.8674 C   0  0  0  0  0  0  0  0  0  0  0  0
    5.5382  -10.5779   29.7085 O   0  0  0  0  0  0  0  0  0  0  0  0
    2.0698   -5.0582   27.0996 F   0  0  0  0  0  0  0  0  0  0  0  0
    0.6014   -9.9963   17.2281 C   0  0  0  0  0  0  0  0  0  0  0  0
    4.1932   -9.2315   28.7454 C   0  0  0  0  0  0  0  0  0  0  0  0
    2.2312  -10.1758   29.7102 He  0  0  0  0  0  0  0  0  0  0  0  0
  1 21  4  0
  2 16  4  0
  2 19  4  0
  2 22  1  0
  2 27  3  0
  3  5  1  0
  3  6  3  0
  4 12  2  0
  4 14  2  0
  4 16  1  0
  4 18  1  0
  4 20  4  0
  4 25  1  0
  5 13  4  0
  5 19  1  0
  5 23  4  0
  5 25  1  0
  6 15  2  0
  6 23  4  0
  6 26  2  0
  7 13  3  0
  7 14  4  0
  7 23  4  0
  7 25  1  0
  8 13  4  0
  8 16  4  0
  8 20  4  0
  9 11  4  0
 10 11  4  0
 10 22  4  0
 10 23  2  0
 11 18  1  0
 11 20  2  0
 12 22  4  0
 12 26  4  0
 13 19  4  0
 13 27  3  0
 14 21  4  0
 15 17  4  0
 15 24  2  0
 15 27  4  0
 17 18  1  0
 18 20  3  0
 19 22  3  0
 19 23  2  0
 20 22  3  0
 20 26  2  0
 20 27  4  0
 23 26  1  0
M  END
$$$$

 Created by Python create_sdf_string function

 28 31  0  0  0  0  0  0  0  0999 V2000
   -0.6837  -13.4254   18.7489 C   0  0  0  0  0  0  0  0  0  0  0  0
    3.0102   -8.4751   28.5033 C   0  0  0  0  0  0  0  0  0  0  0  0
    0.4232   -6.8368   27.4078 C   0  0  0  0  0  0  0  0  0  0  0  0
    0.6545   -4.4550   27.2954 C   0  0  0  0  0  0  0  0  0  0  0  0
    2.1080  -10.0162   29.8893 C   0  0  0  0  0  0  0  0  0  0  0  0
    1.7697   -6.5553   27.4898 C   0  0  0  0  0  0  0  0  0  0  0  0
    0.1132  -12.3842   18.1864 C   0  0  0  0  0  0  0  0  0  0  0  0
   -1.7481  -10.8560   18.3109 C   0  0  0  0  0  0  0  0  0  0  0  0
    5.1911   -7.5526   27.1799 C   0  0  0  0  0  0  0  0  0  0  0  0
    1.7855  -10.2021   17.1524 C   0  0  0  0  0  0  0  0  0  0  0  0
    1.9439   -8.0207   16.2334 C   0  0  0  0  0  0  0  0  0  0  0  0
    2.5361   -9.1742   16.6050 C   0  0  0  0  0  0  0  0  0  0  0  0
   -0.2089   -8.8885   16.9235 C   0  0  0  0  0  0  0  0  0  0  0  0
    4.0337   -6.9798   27.0410 N   0  0  0  0  0  0  0  0  0  0  0  0
   -2.5000  -11.9120   18.9037 C   0  0  0  0  0  0  0  0  0  0  0  0
    4.4378  -10.1188   29.5700 C   0  0  0  0  0  0  0  0  0  0  0  0
    1.8923   -8.9871   29.0879 N   0  0  0  0  0  0  0  0  0  0  0  0
    3.2756  -10.5779   30.1049 N   0  0  0  0  0  0  0  0  0  0  0  0
   -0.3300   -5.5195   27.0031 C   0  0  0  0  0  0  0  0  0  0  0  0
    2.9559   -7.3381   27.6466 C   0  0  0  0  0  0  0  0  0  0  0  0
    5.3889   -8.5743   27.9988 N   0  0  0  0  0  0  0  0  0  0  0  0
   -1.9795  -13.1594   19.0903 C   0  0  0  0  0  0  0  0  0  0  0  0
    0.5870   -7.8744   16.3605 C   0  0  0  0  0  0  0  0  0  0  0  0
   -0.3962  -11.0969   17.9479 C   0  0  0  0  0  0  0  0  0  0  0  0
    5.5070  -10.6232   29.7954 O   0  0  0  0  0  0  0  0  0  0  0  0
    1.9643   -5.0947   27.2284 C   0  0  0  0  0  0  0  0  0  0  0  0
    0.3844  -10.0775   17.3609 C   0  0  0  0  0  0  0  0  0  0  0  0
    4.2348   -9.0021   28.6881 C   0  0  0  0  0  0  0  0  0  0  0  0
  1  7  4  0
  1 22  4  0
  2 17  4  0
  2 20  4  0
  2 28  4  0
  3  6  1  0
  3 19  1  0
  4 19  1  0
  4 26  1  0
  5 17  4  0
  5 18  4  0
  6 20  1  0
  6 26  1  0
  7 24  4  0
  8 15  4  0
  8 24  4  0
  9 14  4  0
  9 21  4  0
 10 12  4  0
 10 27  4  0
 11 12  4  0
 11 23  4  0
 13 23  4  0
 13 27  4  0
 14 20  4  0
 15 22  4  0
 16 18  4  0
 16 25  2  0
 16 28  4  0
 21 28  4  0
 24 27  1  0
M  END
$$$$

 Created by Python create_sdf_string function

 28 40  0  0  0  0  0  0  0  0999 V2000
   -0.6264  -13.5347   18.7773 C   0  0  0  0  0  0  0  0  0  0  0  0
    3.4016   -8.8718   28.4323 C   0  0  0  0  0  0  0  0  0  0  0  0
    0.3127   -7.2001   27.6197 C   0  0  0  0  0  0  0  0  0  0  0  0
    0.4501   -4.5155   27.3633 C   0  0  0  0  0  0  0  0  0  0  0  0
    2.1380   -9.6927   29.5064 C   0  0  0  0  0  0  0  0  0  0  0  0
    1.8048   -6.5446   27.4739 C   0  0  0  0  0  0  0  0  0  0  0  0
    0.0925  -12.3623   18.5817 C   0  0  0  0  0  0  0  0  0  0  0  0
   -1.8261  -10.8287   18.3433 C   0  0  0  0  0  0  0  0  0  0  0  0
    5.1843   -7.4747   27.0926 C   0  0  0  0  0  0  0  0  0  0  0  0
    1.6915  -10.3311   17.2494 C   0  0  0  0  0  0  0  0  0  0  0  0
    1.9091   -8.2015   16.3718 C   0  0  0  0  0  0  0  0  0  0  0  0
    2.5336   -9.1702   16.4338 C   0  0  0  0  0  0  0  0  0  0  0  0
   -0.2658   -8.8421   17.1276 C   0  0  0  0  0  0  0  0  0  0  0  0
    4.3903   -7.1846   27.0387 F   0  0  0  0  0  0  0  0  0  0  0  0
   -2.4595  -11.6525   18.7298 C   0  0  0  0  0  0  0  0  0  0  0  0
    4.5487  -10.0837   29.4722 C   0  0  0  0  0  0  0  0  0  0  0  0
    2.2369   -8.8571   29.1128 N   0  0  0  0  0  0  0  0  0  0  0  0
    3.4044  -10.4480   29.8967 N   0  0  0  0  0  0  0  0  0  0  0  0
   -0.4225   -5.0717   27.0218 C   0  0  0  0  0  0  0  0  0  0  0  0
    2.9557   -7.4320   27.6132 C   0  0  0  0  0  0  0  0  0  0  0  0
    5.5478   -8.4435   28.0311 N   0  0  0  0  0  0  0  0  0  0  0  0
   -1.9306  -13.0104   19.5230 C   0  0  0  0  0  0  0  0  0  0  0  0
    0.5079   -7.8549   16.3667 C   0  0  0  0  0  0  0  0  0  0  0  0
   -0.7741  -11.0761   17.8089 C   0  0  0  0  0  0  0  0  0  0  0  0
    5.5803  -10.7014   29.7945 O   0  0  0  0  0  0  0  0  0  0  0  0
    4.5074   -8.9461   28.5066 C   0  0  0  0  0  0  0  0  0  0  0  0
    2.1289   -4.9193   27.1312 He  0  0  0  0  0  0  0  0  0  0  0  0
    0.2191   -9.9690   17.1250 He  0  0  0  0  0  0  0  0  0  0  0  0
  1 22  4  0
  2 15  2  0
  2 17  4  0
  2 20  4  0
  3  6  1  0
  3 19  1  0
  4 19  1  0
  4 22  3  0
  5  9  2  0
  5 17  4  0
  5 18  4  0
  5 19  1  0
  5 22  3  0
  6 20  1  0
  6 21  3  0
  6 23  1  0
  6 26  3  0
  7 11  2  0
  7 13  4  0
  7 14  1  0
  7 25  1  0
  8 15  3  0
  8 24  4  0
  9 14  2  0
  9 17  1  0
  9 21  4  0
 10 12  4  0
 11 12  4  0
 11 23  4  0
 13 23  1  0
 14 20  4  0
 14 22  3  0
 14 23  2  0
 15 20  1  0
 16 18  4  0
 16 25  2  0
 16 26  4  0
 21 24  4  0
 21 26  4  0
 24 25  2  0
M  END
$$$$

 Created by Python create_sdf_string function

 28 31  0  0  0  0  0  0  0  0999 V2000
   -0.7244  -13.3456   18.9084 C   0  0  0  0  0  0  0  0  0  0  0  0
    3.1775   -8.4216   28.4122 C   0  0  0  0  0  0  0  0  0  0  0  0
    0.4764   -6.8446   27.5000 C   0  0  0  0  0  0  0  0  0  0  0  0
    0.6618   -4.4715   27.2694 C   0  0  0  0  0  0  0  0  0  0  0  0
    2.2528   -9.9656   29.7710 C   0  0  0  0  0  0  0  0  0  0  0  0
    1.8371   -6.5469   27.4397 C   0  0  0  0  0  0  0  0  0  0  0  0
    0.0646  -12.3481   18.3020 C   0  0  0  0  0  0  0  0  0  0  0  0
   -1.8355  -10.8417   18.2763 C   0  0  0  0  0  0  0  0  0  0  0  0
    5.3701   -7.5173   27.0865 C   0  0  0  0  0  0  0  0  0  0  0  0
    1.6753  -10.2692   17.1345 C   0  0  0  0  0  0  0  0  0  0  0  0
    1.8995   -8.0965   16.2396 C   0  0  0  0  0  0  0  0  0  0  0  0
    2.4584   -9.2587   16.5681 C   0  0  0  0  0  0  0  0  0  0  0  0
   -0.2506   -8.8277   17.0018 C   0  0  0  0  0  0  0  0  0  0  0  0
    4.1672   -6.9477   26.8979 N   0  0  0  0  0  0  0  0  0  0  0  0
   -2.5815  -11.8775   18.9278 C   0  0  0  0  0  0  0  0  0  0  0  0
    4.5441  -10.1297   29.4797 C   0  0  0  0  0  0  0  0  0  0  0  0
    2.0360   -8.9348   29.0005 N   0  0  0  0  0  0  0  0  0  0  0  0
    3.3951  -10.5546   30.0173 N   0  0  0  0  0  0  0  0  0  0  0  0
   -0.3401   -5.5462   27.1157 C   0  0  0  0  0  0  0  0  0  0  0  0
    3.0910   -7.3161   27.5756 C   0  0  0  0  0  0  0  0  0  0  0  0
    5.5295   -8.5389   27.9377 N   0  0  0  0  0  0  0  0  0  0  0  0
   -2.0245  -13.0617   19.2138 C   0  0  0  0  0  0  0  0  0  0  0  0
    0.5692   -7.8469   16.4474 C   0  0  0  0  0  0  0  0  0  0  0  0
   -0.4676  -11.0598   17.9932 C   0  0  0  0  0  0  0  0  0  0  0  0
    5.5745  -10.6429   29.7736 O   0  0  0  0  0  0  0  0  0  0  0  0
    1.9609   -5.0961   27.2005 C   0  0  0  0  0  0  0  0  0  0  0  0
    0.3160  -10.0765   17.4076 C   0  0  0  0  0  0  0  0  0  0  0  0
    4.3937   -8.9970   28.5929 C   0  0  0  0  0  0  0  0  0  0  0  0
  1  7  4  0
  1 22  4  0
  2 17  4  0
  2 20  4  0
  2 28  4  0
  3  6  1  0
  3 19  1  0
  4 19  1  0
  4 26  1  0
  5 17  4  0
  5 18  4  0
  6 20  1  0
  6 26  1  0
  7 24  4  0
  8 15  4  0
  8 24  4  0
  9 14  4  0
  9 21  4  0
 10 12  4  0
 10 27  4  0
 11 12  4  0
 11 23  4  0
 13 23  4  0
 13 27  4  0
 14 20  4  0
 15 22  4  0
 16 18  4  0
 16 25  2  0
 16 28  4  0
 21 28  4  0
 24 27  1  0
M  END
$$$$

 Created by Python create_sdf_string function

 28 42  0  0  0  0  0  0  0  0999 V2000
   -0.6438  -13.3526   18.9258 C   0  0  0  0  0  0  0  0  0  0  0  0
    3.1504   -8.4865   28.2472 C   0  0  0  0  0  0  0  0  0  0  0  0
    0.4088   -6.6431   27.1682 C   0  0  0  0  0  0  0  0  0  0  0  0
    0.6903   -4.7076   27.7445 C   0  0  0  0  0  0  0  0  0  0  0  0
    2.5234   -9.9071   29.5642 C   0  0  0  0  0  0  0  0  0  0  0  0
    0.3671  -12.4441   18.5377 O   0  0  0  0  0  0  0  0  0  0  0  0
   -2.1160  -11.0069   18.1199 C   0  0  0  0  0  0  0  0  0  0  0  0
    5.3816   -7.3701   27.2222 C   0  0  0  0  0  0  0  0  0  0  0  0
    1.6827  -10.3248   17.1247 C   0  0  0  0  0  0  0  0  0  0  0  0
    2.0405   -8.0729   16.2408 C   0  0  0  0  0  0  0  0  0  0  0  0
    2.5019   -9.2240   16.6198 C   0  0  0  0  0  0  0  0  0  0  0  0
   -0.2412   -8.6795   17.0337 C   0  0  0  0  0  0  0  0  0  0  0  0
    4.4087   -6.6932   26.6040 N   0  0  0  0  0  0  0  0  0  0  0  0
   -2.5819  -11.9908   18.8252 C   0  0  0  0  0  0  0  0  0  0  0  0
    4.4025  -10.1086   29.4324 C   0  0  0  0  0  0  0  0  0  0  0  0
    2.2509   -8.8460   29.1053 N   0  0  0  0  0  0  0  0  0  0  0  0
    3.2953  -10.6364   30.0526 N   0  0  0  0  0  0  0  0  0  0  0  0
    3.1700   -7.2230   27.6154 C   0  0  0  0  0  0  0  0  0  0  0  0
    5.4094   -8.4552   28.0111 N   0  0  0  0  0  0  0  0  0  0  0  0
   -1.8976  -13.1400   19.2279 C   0  0  0  0  0  0  0  0  0  0  0  0
    0.4201   -7.9087   16.4655 C   0  0  0  0  0  0  0  0  0  0  0  0
   -0.5343  -10.7508   18.0160 C   0  0  0  0  0  0  0  0  0  0  0  0
    5.5148  -10.7163   29.6386 O   0  0  0  0  0  0  0  0  0  0  0  0
    1.6379   -5.0878   26.9845 C   0  0  0  0  0  0  0  0  0  0  0  0
    0.4115  -10.1340   17.1289 C   0  0  0  0  0  0  0  0  0  0  0  0
    4.2949   -9.0331   28.6758 C   0  0  0  0  0  0  0  0  0  0  0  0
    1.9847   -6.3709   27.2065 He  0  0  0  0  0  0  0  0  0  0  0  0
   -0.3114   -5.5710   27.3593 He  0  0  0  0  0  0  0  0  0  0  0  0
  1  4  4  0
  1 20  4  0
  1 22  1  0
  2 15  4  0
  2 16  4  0
  2 18  4  0
  2 26  4  0
  3 12  4  0
  3 15  3  0
  4 13  2  0
  5  9  3  0
  5 16  4  0
  5 17  4  0
  5 21  4  0
  5 22  4  0
  6 22  4  0
  6 25  4  0
  6 26  2  0
  7 22  4  0
  8 13  4  0
  8 14  2  0
  8 19  4  0
  9 11  4  0
  9 25  4  0
 10 11  4  0
 10 21  4  0
 12 21  1  0
 12 25  1  0
 13 18  4  0
 14 20  4  0
 14 22  2  0
 15 17  4  0
 15 23  2  0
 15 24  3  0
 15 26  4  0
 17 23  4  0
 18 20  4  0
 18 23  3  0
 19 26  4  0
 22 24  1  0
 22 25  1  0
 22 26  3  0
M  END
$$$$

 Created by Python create_sdf_string function

 28 31  0  0  0  0  0  0  0  0999 V2000
   -0.6397  -13.2897   18.9487 C   0  0  0  0  0  0  0  0  0  0  0  0
    3.1525   -8.3552   28.3514 C   0  0  0  0  0  0  0  0  0  0  0  0
    0.6033   -6.8607   27.2677 C   0  0  0  0  0  0  0  0  0  0  0  0
    0.6422   -4.5042   27.5624 C   0  0  0  0  0  0  0  0  0  0  0  0
    2.2132   -9.8974   29.7195 C   0  0  0  0  0  0  0  0  0  0  0  0
    1.9504   -6.4656   27.2098 C   0  0  0  0  0  0  0  0  0  0  0  0
    0.1311  -12.2735   18.3689 C   0  0  0  0  0  0  0  0  0  0  0  0
   -1.8612  -10.9388   18.1943 C   0  0  0  0  0  0  0  0  0  0  0  0
    5.4020   -7.4166   27.1246 C   0  0  0  0  0  0  0  0  0  0  0  0
    1.7057  -10.2458   17.1470 C   0  0  0  0  0  0  0  0  0  0  0  0
    1.9463   -8.0495   16.2444 C   0  0  0  0  0  0  0  0  0  0  0  0
    2.4892   -9.2438   16.5750 C   0  0  0  0  0  0  0  0  0  0  0  0
   -0.2367   -8.8152   16.9847 C   0  0  0  0  0  0  0  0  0  0  0  0
    4.2547   -6.8079   26.9152 N   0  0  0  0  0  0  0  0  0  0  0  0
   -2.5894  -12.0013   18.7983 C   0  0  0  0  0  0  0  0  0  0  0  0
    4.4936  -10.1067   29.4122 C   0  0  0  0  0  0  0  0  0  0  0  0
    2.0705   -8.8730   28.9398 N   0  0  0  0  0  0  0  0  0  0  0  0
    3.3382  -10.5286   29.9505 N   0  0  0  0  0  0  0  0  0  0  0  0
   -0.3029   -5.6186   27.3605 C   0  0  0  0  0  0  0  0  0  0  0  0
    3.1383   -7.2121   27.4841 C   0  0  0  0  0  0  0  0  0  0  0  0
    5.5085   -8.4528   27.9519 N   0  0  0  0  0  0  0  0  0  0  0  0
   -1.9588  -13.1486   19.1542 C   0  0  0  0  0  0  0  0  0  0  0  0
    0.5985   -7.8273   16.4257 C   0  0  0  0  0  0  0  0  0  0  0  0
   -0.4560  -11.0721   17.9743 C   0  0  0  0  0  0  0  0  0  0  0  0
    5.5569  -10.6453   29.6618 O   0  0  0  0  0  0  0  0  0  0  0  0
    1.9720   -4.9713   27.0775 C   0  0  0  0  0  0  0  0  0  0  0  0
    0.3274  -10.0388   17.3813 C   0  0  0  0  0  0  0  0  0  0  0  0
    4.3758   -8.9440   28.5607 C   0  0  0  0  0  0  0  0  0  0  0  0
  1  7  4  0
  1 22  4  0
  2 17  4  0
  2 20  4  0
  2 28  4  0
  3  6  1  0
  3 19  1  0
  4 19  1  0
  4 26  1  0
  5 17  4  0
  5 18  4  0
  6 20  1  0
  6 26  1  0
  7 24  4  0
  8 15  4  0
  8 24  4  0
  9 14  4  0
  9 21  4  0
 10 12  4  0
 10 27  4  0
 11 12  4  0
 11 23  4  0
 13 23  4  0
 13 27  4  0
 14 20  4  0
 15 22  4  0
 16 18  4  0
 16 25  2  0
 16 28  4  0
 21 28  4  0
 24 27  1  0
M  END
$$$$

 Created by Python create_sdf_string function

 28 40  0  0  0  0  0  0  0  0999 V2000
   -0.5754  -13.2308   19.0332 C   0  0  0  0  0  0  0  0  0  0  0  0
    3.1308   -8.3895   28.4384 C   0  0  0  0  0  0  0  0  0  0  0  0
    0.5758   -7.0565   27.3133 N   0  0  0  0  0  0  0  0  0  0  0  0
    0.5719   -4.3984   27.5823 C   0  0  0  0  0  0  0  0  0  0  0  0
    2.3365  -10.2748   29.7069 C   0  0  0  0  0  0  0  0  0  0  0  0
    2.1272   -6.5818   27.3689 C   0  0  0  0  0  0  0  0  0  0  0  0
   -1.6402  -10.3424   18.1743 C   0  0  0  0  0  0  0  0  0  0  0  0
    5.4390   -7.3848   27.0904 C   0  0  0  0  0  0  0  0  0  0  0  0
    1.7187  -10.3646   17.1112 C   0  0  0  0  0  0  0  0  0  0  0  0
    2.0605   -8.2557   16.2447 C   0  0  0  0  0  0  0  0  0  0  0  0
    2.4546   -9.3283   16.8961 C   0  0  0  0  0  0  0  0  0  0  0  0
   -0.3556   -8.9167   16.8974 C   0  0  0  0  0  0  0  0  0  0  0  0
    4.1727   -6.5203   26.8922 N   0  0  0  0  0  0  0  0  0  0  0  0
   -2.8210  -11.9834   18.7229 C   0  0  0  0  0  0  0  0  0  0  0  0
    4.4014  -10.4875   29.2477 C   0  0  0  0  0  0  0  0  0  0  0  0
    1.9886   -8.8511   29.1193 N   0  0  0  0  0  0  0  0  0  0  0  0
    3.3950  -10.5564   30.0477 N   0  0  0  0  0  0  0  0  0  0  0  0
   -0.3969   -6.0084   27.1672 Br  0  0  0  0  0  0  0  0  0  0  0  0
    3.0358   -7.0770   27.4611 C   0  0  0  0  0  0  0  0  0  0  0  0
   -1.8914  -13.2112   19.1243 C   0  0  0  0  0  0  0  0  0  0  0  0
   -0.3979  -11.2682   17.8938 C   0  0  0  0  0  0  0  0  0  0  0  0
    5.5670  -10.6322   29.6904 O   0  0  0  0  0  0  0  0  0  0  0  0
    1.9268   -4.8154   26.8808 C   0  0  0  0  0  0  0  0  0  0  0  0
    0.3807   -9.8220   17.5348 C   0  0  0  0  0  0  0  0  0  0  0  0
    4.3928   -8.8445   28.4266 C   0  0  0  0  0  0  0  0  0  0  0  0
   -0.0575  -12.0849   18.0471 He  0  0  0  0  0  0  0  0  0  0  0  0
    5.5191   -8.4677   27.8660 He  0  0  0  0  0  0  0  0  0  0  0  0
    0.6767   -7.8289   16.4571 He  0  0  0  0  0  0  0  0  0  0  0  0
  1  5  2  0
  1 13  3  0
  1 20  4  0
  2  8  2  0
  2 16  4  0
  2 19  4  0
  2 25  4  0
  3  6  1  0
  3 18  2  0
  4  8  3  0
  4  9  3  0
  4 14  3  0
  4 18  1  0
  4 23  1  0
  5 16  4  0
  5 17  4  0
  6 10  4  0
  6 12  2  0
  6 19  1  0
  6 20  4  0
  6 23  1  0
  7 14  3  0
  7 17  1  0
  8 13  4  0
  9 11  4  0
 10 11  4  0
 10 24  3  0
 12 24  4  0
 13 19  2  0
 13 23  3  0
 14 20  4  0
 15 17  4  0
 15 22  2  0
 15 25  4  0
 17 18  1  0
 18 19  4  0
 19 23  2  0
 20 21  4  0
 21 24  1  0
 22 25  2  0
M  END
$$$$

 Created by Python create_sdf_string function

 28 31  0  0  0  0  0  0  0  0999 V2000
   -0.7239  -13.2969   18.8308 C   0  0  0  0  0  0  0  0  0  0  0  0
    3.1517   -8.4051   28.3581 C   0  0  0  0  0  0  0  0  0  0  0  0
    0.6335   -6.9587   27.3504 C   0  0  0  0  0  0  0  0  0  0  0  0
    0.4985   -4.5605   27.3604 C   0  0  0  0  0  0  0  0  0  0  0  0
    2.2137  -10.0261   29.7275 C   0  0  0  0  0  0  0  0  0  0  0  0
    1.9586   -6.4770   27.3823 C   0  0  0  0  0  0  0  0  0  0  0  0
    0.0864  -12.2631   18.3066 C   0  0  0  0  0  0  0  0  0  0  0  0
   -1.8442  -10.8233   18.1914 C   0  0  0  0  0  0  0  0  0  0  0  0
    5.4171   -7.3960   27.1068 C   0  0  0  0  0  0  0  0  0  0  0  0
    1.7531  -10.2634   17.2491 C   0  0  0  0  0  0  0  0  0  0  0  0
    2.0571   -8.1186   16.2999 C   0  0  0  0  0  0  0  0  0  0  0  0
    2.5710   -9.2821   16.6895 C   0  0  0  0  0  0  0  0  0  0  0  0
   -0.1577   -8.8244   16.9604 C   0  0  0  0  0  0  0  0  0  0  0  0
    4.2521   -6.7390   26.9771 N   0  0  0  0  0  0  0  0  0  0  0  0
   -2.6171  -11.8742   18.8069 C   0  0  0  0  0  0  0  0  0  0  0  0
    4.5282  -10.1508   29.3752 C   0  0  0  0  0  0  0  0  0  0  0  0
    2.0679   -8.9402   28.9796 N   0  0  0  0  0  0  0  0  0  0  0  0
    3.3779  -10.6500   29.8966 N   0  0  0  0  0  0  0  0  0  0  0  0
   -0.3089   -5.7740   27.2226 C   0  0  0  0  0  0  0  0  0  0  0  0
    3.1622   -7.2053   27.5592 C   0  0  0  0  0  0  0  0  0  0  0  0
    5.5221   -8.5257   27.8674 N   0  0  0  0  0  0  0  0  0  0  0  0
   -2.0384  -13.0651   19.1052 C   0  0  0  0  0  0  0  0  0  0  0  0
    0.7323   -7.8799   16.3939 C   0  0  0  0  0  0  0  0  0  0  0  0
   -0.4426  -11.0396   17.9458 C   0  0  0  0  0  0  0  0  0  0  0  0
    5.5829  -10.6686   29.5882 O   0  0  0  0  0  0  0  0  0  0  0  0
    1.9066   -5.0251   27.0242 C   0  0  0  0  0  0  0  0  0  0  0  0
    0.3652  -10.0471   17.3774 C   0  0  0  0  0  0  0  0  0  0  0  0
    4.3820   -8.9982   28.5327 C   0  0  0  0  0  0  0  0  0  0  0  0
  1  7  4  0
  1 22  4  0
  2 17  4  0
  2 20  4  0
  2 28  4  0
  3  6  1  0
  3 19  1  0
  4 19  1  0
  4 26  1  0
  5 17  4  0
  5 18  4  0
  6 20  1  0
  6 26  1  0
  7 24  4  0
  8 15  4  0
  8 24  4  0
  9 14  4  0
  9 21  4  0
 10 12  4  0
 10 27  4  0
 11 12  4  0
 11 23  4  0
 13 23  4  0
 13 27  4  0
 14 20  4  0
 15 22  4  0
 16 18  4  0
 16 25  2  0
 16 28  4  0
 21 28  4  0
 24 27  1  0
M  END
$$$$

 Created by Python create_sdf_string function

 28 46  0  0  0  0  0  0  0  0999 V2000
   -0.7990  -13.2761   18.8763 F   0  0  0  0  0  0  0  0  0  0  0  0
    2.9005   -8.8110   28.6821 C   0  0  0  0  0  0  0  0  0  0  0  0
    0.4941   -6.8352   27.2101 C   0  0  0  0  0  0  0  0  0  0  0  0
    0.3165   -4.6496   27.2207 C   0  0  0  0  0  0  0  0  0  0  0  0
    2.1897  -10.0805   29.9238 C   0  0  0  0  0  0  0  0  0  0  0  0
    1.8250   -6.3184   27.2470 P   0  0  0  0  0  0  0  0  0  0  0  0
    0.1062  -12.1277   18.2963 C   0  0  0  0  0  0  0  0  0  0  0  0
   -1.8015  -10.8072   18.3044 C   0  0  0  0  0  0  0  0  0  0  0  0
    5.4881   -7.3817   27.0400 F   0  0  0  0  0  0  0  0  0  0  0  0
    1.7387  -10.3678   17.2087 C   0  0  0  0  0  0  0  0  0  0  0  0
    2.0741   -8.2259   16.4138 C   0  0  0  0  0  0  0  0  0  0  0  0
    2.6946   -9.1444   16.5634 C   0  0  0  0  0  0  0  0  0  0  0  0
   -0.3150   -8.7919   17.0254 N   0  0  0  0  0  0  0  0  0  0  0  0
    4.1430   -6.6965   27.0155 N   0  0  0  0  0  0  0  0  0  0  0  0
   -2.7030  -12.1804   18.6870 C   0  0  0  0  0  0  0  0  0  0  0  0
    4.5997  -10.2011   29.3363 C   0  0  0  0  0  0  0  0  0  0  0  0
    1.9362   -9.0582   28.8862 N   0  0  0  0  0  0  0  0  0  0  0  0
    3.2133  -10.7551   29.8646 N   0  0  0  0  0  0  0  0  0  0  0  0
   -0.3655   -6.1793   27.3254 C   0  0  0  0  0  0  0  0  0  0  0  0
    3.2125   -7.1291   27.3827 C   0  0  0  0  0  0  0  0  0  0  0  0
    5.3354   -8.3524   27.8847 N   0  0  0  0  0  0  0  0  0  0  0  0
    0.6460   -7.8492   16.2839 C   0  0  0  0  0  0  0  0  0  0  0  0
   -0.6176  -11.1509   17.7595 C   0  0  0  0  0  0  0  0  0  0  0  0
    5.6410  -10.5842   29.7262 C   0  0  0  0  0  0  0  0  0  0  0  0
    1.9255   -5.2159   26.7387 C   0  0  0  0  0  0  0  0  0  0  0  0
    0.3185   -9.8874   17.4117 C   0  0  0  0  0  0  0  0  0  0  0  0
    4.5440   -8.9594   28.5461 C   0  0  0  0  0  0  0  0  0  0  0  0
   -2.1687  -12.9089   18.9855 He  0  0  0  0  0  0  0  0  0  0  0  0
  1  7  4  0
  2 15  4  0
  2 17  2  0
  2 20  4  0
  3  6  1  0
  3 19  1  0
  3 21  2  0
  4 18  4  0
  4 19  1  0
  4 25  1  0
  4 26  1  0
  5 17  4  0
  5 18  4  0
  5 25  4  0
  5 26  2  0
  5 27  1  0
  6  8  2  0
  6 10  1  0
  6 20  1  0
  6 24  2  0
  6 25  1  0
  7 23  4  0
  8 15  4  0
  8 23  4  0
  9 14  4  0
  9 21  4  0
 10 26  4  0
 11 12  4  0
 11 22  4  0
 12 14  1  0
 12 23  3  0
 13 22  4  0
 13 26  4  0
 14 20  4  0
 14 21  3  0
 15 19  4  0
 16 24  2  0
 16 27  4  0
 17 23  4  0
 19 23  4  0
 20 26  4  0
 21 23  3  0
 21 25  2  0
 21 27  4  0
 22 26  1  0
 23 26  1  0
M  END
$$$$

 Created by Python create_sdf_string function

 28 31  0  0  0  0  0  0  0  0999 V2000
   -0.7822  -13.2904   18.8478 C   0  0  0  0  0  0  0  0  0  0  0  0
    3.1194   -8.4325   28.3617 C   0  0  0  0  0  0  0  0  0  0  0  0
    0.5917   -7.0722   27.3042 C   0  0  0  0  0  0  0  0  0  0  0  0
    0.4193   -4.6742   27.0690 C   0  0  0  0  0  0  0  0  0  0  0  0
    2.1721  -10.0694   29.7174 C   0  0  0  0  0  0  0  0  0  0  0  0
    1.9152   -6.5394   27.3713 N   0  0  0  0  0  0  0  0  0  0  0  0
    0.0548  -12.2857   18.3202 C   0  0  0  0  0  0  0  0  0  0  0  0
   -1.8657  -10.8519   18.1231 C   0  0  0  0  0  0  0  0  0  0  0  0
    5.3794   -7.3969   27.1300 C   0  0  0  0  0  0  0  0  0  0  0  0
    1.7190  -10.2616   17.2159 C   0  0  0  0  0  0  0  0  0  0  0  0
    2.0102   -8.1042   16.2704 C   0  0  0  0  0  0  0  0  0  0  0  0
    2.5555   -9.2732   16.6683 C   0  0  0  0  0  0  0  0  0  0  0  0
   -0.2085   -8.8462   16.9819 C   0  0  0  0  0  0  0  0  0  0  0  0
    4.2013   -6.7990   26.9741 N   0  0  0  0  0  0  0  0  0  0  0  0
   -2.6668  -11.8774   18.7014 C   0  0  0  0  0  0  0  0  0  0  0  0
    4.5134  -10.1209   29.4098 C   0  0  0  0  0  0  0  0  0  0  0  0
    2.0193   -8.9647   28.9677 N   0  0  0  0  0  0  0  0  0  0  0  0
    3.3634  -10.6312   29.9460 N   0  0  0  0  0  0  0  0  0  0  0  0
   -0.4068   -5.9007   27.2960 C   0  0  0  0  0  0  0  0  0  0  0  0
    3.1049   -7.2376   27.5327 C   0  0  0  0  0  0  0  0  0  0  0  0
    5.4646   -8.4562   27.9115 N   0  0  0  0  0  0  0  0  0  0  0  0
   -2.0936  -13.0752   19.0459 C   0  0  0  0  0  0  0  0  0  0  0  0
    0.6607   -7.8701   16.4281 C   0  0  0  0  0  0  0  0  0  0  0  0
   -0.4851  -11.0476   17.9441 C   0  0  0  0  0  0  0  0  0  0  0  0
    5.6109  -10.5866   29.6888 O   0  0  0  0  0  0  0  0  0  0  0  0
    1.8384   -5.1507   26.8524 C   0  0  0  0  0  0  0  0  0  0  0  0
    0.3350  -10.0588   17.3913 C   0  0  0  0  0  0  0  0  0  0  0  0
    4.3399   -8.9710   28.5283 C   0  0  0  0  0  0  0  0  0  0  0  0
  1  7  4  0
  1 22  4  0
  2 17  4  0
  2 20  4  0
  2 28  4  0
  3  6  1  0
  3 19  1  0
  4 19  1  0
  4 26  1  0
  5 17  4  0
  5 18  4  0
  6 20  1  0
  6 26  1  0
  7 24  4  0
  8 15  4  0
  8 24  4  0
  9 14  4  0
  9 21  4  0
 10 12  4  0
 10 27  4  0
 11 12  4  0
 11 23  4  0
 13 23  4  0
 13 27  4  0
 14 20  4  0
 15 22  4  0
 16 18  4  0
 16 25  2  0
 16 28  4  0
 21 28  4  0
 24 27  1  0
M  END
$$$$

 Created by Python create_sdf_string function

 28 50  0  0  0  0  0  0  0  0999 V2000
   -0.6207  -13.2916   18.9088 C   0  0  0  0  0  0  0  0  0  0  0  0
    3.2950   -8.7274   28.6175 C   0  0  0  0  0  0  0  0  0  0  0  0
    0.5788   -6.9586   27.4275 C   0  0  0  0  0  0  0  0  0  0  0  0
    0.3999   -4.8148   27.1461 C   0  0  0  0  0  0  0  0  0  0  0  0
    2.2208   -9.8637   29.7096 C   0  0  0  0  0  0  0  0  0  0  0  0
   -0.0639  -12.3458   18.3527 C   0  0  0  0  0  0  0  0  0  0  0  0
   -1.9633  -10.7330   18.2608 C   0  0  0  0  0  0  0  0  0  0  0  0
    5.2953   -7.6710   27.2030 C   0  0  0  0  0  0  0  0  0  0  0  0
    1.6822  -10.3462   17.2467 C   0  0  0  0  0  0  0  0  0  0  0  0
    2.0702   -7.9995   16.2566 C   0  0  0  0  0  0  0  0  0  0  0  0
    2.5809   -9.1572   16.6924 C   0  0  0  0  0  0  0  0  0  0  0  0
   -0.2644   -8.8052   16.8761 C   0  0  0  0  0  0  0  0  0  0  0  0
    4.2320   -6.8279   27.0215 N   0  0  0  0  0  0  0  0  0  0  0  0
   -2.6774  -11.7913   18.6736 C   0  0  0  0  0  0  0  0  0  0  0  0
    4.5142  -10.0519   29.4484 C   0  0  0  0  0  0  0  0  0  0  0  0
    1.7568   -9.0080   28.8894 N   0  0  0  0  0  0  0  0  0  0  0  0
    3.4541  -10.6473   29.9260 N   0  0  0  0  0  0  0  0  0  0  0  0
   -0.3745   -5.6936   27.3666 C   0  0  0  0  0  0  0  0  0  0  0  0
    3.0876   -7.2275   27.3235 C   0  0  0  0  0  0  0  0  0  0  0  0
    5.4509   -8.4193   28.1337 N   0  0  0  0  0  0  0  0  0  0  0  0
   -2.5628  -13.1378   19.1432 C   0  0  0  0  0  0  0  0  0  0  0  0
    0.6637   -7.9368   16.2520 C   0  0  0  0  0  0  0  0  0  0  0  0
   -0.0569  -11.1611   17.9041 C   0  0  0  0  0  0  0  0  0  0  0  0
    5.5879  -10.7715   29.7661 O   0  0  0  0  0  0  0  0  0  0  0  0
    1.9377   -5.1024   26.5954 C   0  0  0  0  0  0  0  0  0  0  0  0
    0.2032   -9.9868   17.4376 C   0  0  0  0  0  0  0  0  0  0  0  0
    4.3696   -8.7546   28.5381 C   0  0  0  0  0  0  0  0  0  0  0  0
    1.9489   -6.7251   27.2774 He  0  0  0  0  0  0  0  0  0  0  0  0
  1  6  4  0
  1 16  3  0
  1 21  4  0
  2 11  3  0
  2 14  2  0
  2 15  2  0
  2 16  4  0
  2 17  4  0
  2 19  4  0
  2 27  4  0
  3  7  3  0
  3 18  1  0
  3 23  3  0
  4  5  2  0
  4 10  1  0
  4 14  4  0
  4 18  1  0
  4 25  1  0
  5  6  3  0
  5 16  4  0
  5 17  4  0
  6 23  4  0
  7  9  4  0
  7 10  1  0
  7 19  3  0
  7 23  4  0
  8 13  4  0
  8 16  2  0
  8 20  4  0
  9 11  4  0
  9 13  2  0
  9 26  4  0
 10 22  4  0
 11 17  2  0
 11 19  4  0
 11 23  1  0
 12 22  4  0
 12 26  4  0
 13 17  4  0
 13 19  4  0
 13 27  1  0
 14 21  4  0
 15 17  4  0
 15 24  4  0
 15 27  4  0
 16 18  4  0
 19 21  2  0
 20 27  1  0
 22 23  4  0
 23 26  1  0
M  END
$$$$

 Created by Python create_sdf_string function

 28 31  0  0  0  0  0  0  0  0999 V2000
   -0.8614  -13.3123   18.8692 C   0  0  0  0  0  0  0  0  0  0  0  0
    3.1364   -8.4363   28.3712 C   0  0  0  0  0  0  0  0  0  0  0  0
    0.5410   -6.9996   27.4870 C   0  0  0  0  0  0  0  0  0  0  0  0
    0.5414   -4.6440   26.9899 C   0  0  0  0  0  0  0  0  0  0  0  0
    2.1814  -10.0220   29.7306 C   0  0  0  0  0  0  0  0  0  0  0  0
    1.8856   -6.6638   27.2291 N   0  0  0  0  0  0  0  0  0  0  0  0
   -0.0183  -12.3094   18.3518 C   0  0  0  0  0  0  0  0  0  0  0  0
   -1.8658  -10.8042   18.1833 C   0  0  0  0  0  0  0  0  0  0  0  0
    5.3842   -7.4801   27.2004 C   0  0  0  0  0  0  0  0  0  0  0  0
    1.7279  -10.2177   17.2860 C   0  0  0  0  0  0  0  0  0  0  0  0
    2.0068   -8.0809   16.2384 C   0  0  0  0  0  0  0  0  0  0  0  0
    2.5515   -9.2293   16.7091 C   0  0  0  0  0  0  0  0  0  0  0  0
   -0.1878   -8.8444   16.8868 C   0  0  0  0  0  0  0  0  0  0  0  0
    4.2104   -6.9181   26.9353 N   0  0  0  0  0  0  0  0  0  0  0  0
   -2.7121  -11.8077   18.7496 C   0  0  0  0  0  0  0  0  0  0  0  0
    4.4984  -10.1109   29.4770 C   0  0  0  0  0  0  0  0  0  0  0  0
    2.0193   -8.9790   28.9469 N   0  0  0  0  0  0  0  0  0  0  0  0
    3.3354  -10.5720   30.0189 N   0  0  0  0  0  0  0  0  0  0  0  0
   -0.3660   -5.7584   27.3426 C   0  0  0  0  0  0  0  0  0  0  0  0
    3.0893   -7.3062   27.4997 C   0  0  0  0  0  0  0  0  0  0  0  0
    5.5285   -8.4852   28.0189 N   0  0  0  0  0  0  0  0  0  0  0  0
   -2.1993  -13.0574   19.0819 C   0  0  0  0  0  0  0  0  0  0  0  0
    0.6606   -7.8801   16.3172 C   0  0  0  0  0  0  0  0  0  0  0  0
   -0.4927  -11.0366   17.9653 C   0  0  0  0  0  0  0  0  0  0  0  0
    5.5627  -10.6315   29.7546 O   0  0  0  0  0  0  0  0  0  0  0  0
    1.8999   -5.2529   26.7399 C   0  0  0  0  0  0  0  0  0  0  0  0
    0.3488  -10.0664   17.3929 C   0  0  0  0  0  0  0  0  0  0  0  0
    4.3492   -8.9837   28.5999 C   0  0  0  0  0  0  0  0  0  0  0  0
  1  7  4  0
  1 22  4  0
  2 17  4  0
  2 20  4  0
  2 28  4  0
  3  6  1  0
  3 19  1  0
  4 19  1  0
  4 26  1  0
  5 17  4  0
  5 18  4  0
  6 20  1  0
  6 26  1  0
  7 24  4  0
  8 15  4  0
  8 24  4  0
  9 14  4  0
  9 21  4  0
 10 12  4  0
 10 27  4  0
 11 12  4  0
 11 23  4  0
 13 23  4  0
 13 27  4  0
 14 20  4  0
 15 22  4  0
 16 18  4  0
 16 25  2  0
 16 28  4  0
 21 28  4  0
 24 27  1  0
M  END
$$$$

 Created by Python create_sdf_string function

 28 36  0  0  0  0  0  0  0  0999 V2000
   -0.8294  -13.4184   18.8114 C   0  0  0  0  0  0  0  0  0  0  0  0
    3.2990   -8.3082   28.5359 C   0  0  0  0  0  0  0  0  0  0  0  0
    0.7807   -6.6359   27.4735 C   0  0  0  0  0  0  0  0  0  0  0  0
    0.3801   -4.6689   26.8518 C   0  0  0  0  0  0  0  0  0  0  0  0
    2.2499   -9.9972   29.7874 C   0  0  0  0  0  0  0  0  0  0  0  0
    1.6972   -6.8800   27.4337 N   0  0  0  0  0  0  0  0  0  0  0  0
   -1.8460  -10.7710   18.0719 F   0  0  0  0  0  0  0  0  0  0  0  0
    5.3166   -7.5383   27.0261 C   0  0  0  0  0  0  0  0  0  0  0  0
    1.6972  -10.2585   17.2676 C   0  0  0  0  0  0  0  0  0  0  0  0
    2.0590   -8.3117   16.2244 C   0  0  0  0  0  0  0  0  0  0  0  0
    2.3706   -9.2062   16.7402 C   0  0  0  0  0  0  0  0  0  0  0  0
   -0.1318   -8.7727   16.8464 C   0  0  0  0  0  0  0  0  0  0  0  0
    4.3513   -6.9670   27.0959 C   0  0  0  0  0  0  0  0  0  0  0  0
   -2.6577  -11.8618   18.8416 C   0  0  0  0  0  0  0  0  0  0  0  0
    4.5245  -10.0152   29.3184 C   0  0  0  0  0  0  0  0  0  0  0  0
    2.1125   -9.0375   29.0513 N   0  0  0  0  0  0  0  0  0  0  0  0
    3.1866  -10.7365   30.0548 N   0  0  0  0  0  0  0  0  0  0  0  0
   -0.3631   -5.8524   27.3119 C   0  0  0  0  0  0  0  0  0  0  0  0
    3.0737   -7.3372   27.5226 C   0  0  0  0  0  0  0  0  0  0  0  0
    5.3894   -8.3829   27.9675 N   0  0  0  0  0  0  0  0  0  0  0  0
   -2.2111  -12.8967   18.9459 C   0  0  0  0  0  0  0  0  0  0  0  0
    0.7128   -7.9495   16.2522 C   0  0  0  0  0  0  0  0  0  0  0  0
    5.5431  -10.5870   29.6345 O   0  0  0  0  0  0  0  0  0  0  0  0
    1.8838   -5.2148   26.6258 C   0  0  0  0  0  0  0  0  0  0  0  0
    0.2594   -9.9431   17.3056 C   0  0  0  0  0  0  0  0  0  0  0  0
    4.3411   -9.1306   28.7199 C   0  0  0  0  0  0  0  0  0  0  0  0
    0.2432  -12.3039   18.1783 He  0  0  0  0  0  0  0  0  0  0  0  0
   -0.5771  -10.8263   18.0461 He  0  0  0  0  0  0  0  0  0  0  0  0
  1  7  3  0
  1 21  4  0
  2  9  1  0
  2 16  4  0
  2 19  4  0
  2 25  3  0
  2 26  4  0
  3  6  1  0
  3 18  1  0
  4 18  1  0
  4 24  1  0
  5 16  4  0
  5 17  4  0
  6 19  1  0
  6 24  3  0
  7 14  4  0
  7 18  3  0
  8 13  4  0
  8 20  4  0
  9 11  4  0
  9 25  2  0
 10 11  4  0
 10 16  1  0
 10 22  4  0
 12 14  1  0
 12 22  4  0
 12 25  4  0
 13 19  4  0
 14 21  4  0
 15 17  4  0
 15 24  1  0
 15 26  4  0
 16 19  3  0
 16 20  2  0
 20 23  1  0
 20 26  4  0
M  END
$$$$

 Created by Python create_sdf_string function

 28 31  0  0  0  0  0  0  0  0999 V2000
   -0.8514  -13.2722   18.7791 C   0  0  0  0  0  0  0  0  0  0  0  0
    3.1317   -8.4261   28.4171 C   0  0  0  0  0  0  0  0  0  0  0  0
    0.5852   -6.9367   27.6389 C   0  0  0  0  0  0  0  0  0  0  0  0
    0.4745   -4.6747   26.7983 C   0  0  0  0  0  0  0  0  0  0  0  0
    2.1997  -10.0116   29.8015 C   0  0  0  0  0  0  0  0  0  0  0  0
    1.8917   -6.6081   27.3055 N   0  0  0  0  0  0  0  0  0  0  0  0
    0.0057  -12.2729   18.2500 C   0  0  0  0  0  0  0  0  0  0  0  0
   -1.8370  -10.7539   18.1829 C   0  0  0  0  0  0  0  0  0  0  0  0
    5.3836   -7.4992   27.1387 C   0  0  0  0  0  0  0  0  0  0  0  0
    1.7357  -10.2054   17.2943 C   0  0  0  0  0  0  0  0  0  0  0  0
    2.0159   -8.1351   16.1864 C   0  0  0  0  0  0  0  0  0  0  0  0
    2.5352   -9.2611   16.6837 C   0  0  0  0  0  0  0  0  0  0  0  0
   -0.1801   -8.8292   16.8524 C   0  0  0  0  0  0  0  0  0  0  0  0
    4.1828   -6.8857   26.9353 C   0  0  0  0  0  0  0  0  0  0  0  0
   -2.6914  -11.7640   18.7259 C   0  0  0  0  0  0  0  0  0  0  0  0
    4.4876  -10.1500   29.4669 C   0  0  0  0  0  0  0  0  0  0  0  0
    2.0620   -8.9487   29.0698 N   0  0  0  0  0  0  0  0  0  0  0  0
    3.3425  -10.6202   30.0116 N   0  0  0  0  0  0  0  0  0  0  0  0
   -0.3864   -5.8025   27.2951 C   0  0  0  0  0  0  0  0  0  0  0  0
    3.0817   -7.2943   27.5548 C   0  0  0  0  0  0  0  0  0  0  0  0
    5.4747   -8.5426   27.9636 N   0  0  0  0  0  0  0  0  0  0  0  0
   -2.1682  -12.9972   19.0166 C   0  0  0  0  0  0  0  0  0  0  0  0
    0.6771   -7.9092   16.2550 C   0  0  0  0  0  0  0  0  0  0  0  0
   -0.4970  -11.0175   17.9249 C   0  0  0  0  0  0  0  0  0  0  0  0
    5.5453  -10.6747   29.7032 O   0  0  0  0  0  0  0  0  0  0  0  0
    1.8655   -5.2554   26.6759 C   0  0  0  0  0  0  0  0  0  0  0  0
    0.3405  -10.0219   17.3646 C   0  0  0  0  0  0  0  0  0  0  0  0
    4.3555   -9.0180   28.6034 C   0  0  0  0  0  0  0  0  0  0  0  0
  1  7  4  0
  1 22  4  0
  2 17  4  0
  2 20  4  0
  2 28  4  0
  3  6  1  0
  3 19  1  0
  4 19  1  0
  4 26  1  0
  5 17  4  0
  5 18  4  0
  6 20  1  0
  6 26  1  0
  7 24  4  0
  8 15  4  0
  8 24  4  0
  9 14  4  0
  9 21  4  0
 10 12  4  0
 10 27  4  0
 11 12  4  0
 11 23  4  0
 13 23  4  0
 13 27  4  0
 14 20  4  0
 15 22  4  0
 16 18  4  0
 16 25  2  0
 16 28  4  0
 21 28  4  0
 24 27  1  0
M  END
$$$$

 Created by Python create_sdf_string function

 28 43  0  0  0  0  0  0  0  0999 V2000
   -0.9205  -13.3139   18.7634 C   0  0  0  0  0  0  0  0  0  0  0  0
    3.2803   -8.2019   28.6127 C   0  0  0  0  0  0  0  0  0  0  0  0
    0.7794   -6.9787   27.4902 C   0  0  0  0  0  0  0  0  0  0  0  0
    0.2201   -4.4712   26.8430 C   0  0  0  0  0  0  0  0  0  0  0  0
    1.8620   -6.5913   27.1772 N   0  0  0  0  0  0  0  0  0  0  0  0
   -0.2802  -12.0275   18.2018 C   0  0  0  0  0  0  0  0  0  0  0  0
    5.3713   -7.5545   27.1134 C   0  0  0  0  0  0  0  0  0  0  0  0
    1.8569  -10.2888   17.2588 C   0  0  0  0  0  0  0  0  0  0  0  0
    1.9162   -7.9709   16.0842 C   0  0  0  0  0  0  0  0  0  0  0  0
    2.4910   -9.4733   16.7277 C   0  0  0  0  0  0  0  0  0  0  0  0
   -0.1213   -8.8233   16.9337 C   0  0  0  0  0  0  0  0  0  0  0  0
    4.1167   -6.9753   26.8872 C   0  0  0  0  0  0  0  0  0  0  0  0
   -2.7917  -11.7716   18.7912 C   0  0  0  0  0  0  0  0  0  0  0  0
    4.6558  -10.2030   29.4755 C   0  0  0  0  0  0  0  0  0  0  0  0
    1.8719   -8.8330   29.0508 N   0  0  0  0  0  0  0  0  0  0  0  0
    3.3723  -10.6627   30.2538 N   0  0  0  0  0  0  0  0  0  0  0  0
   -0.4776   -5.7405   27.3148 C   0  0  0  0  0  0  0  0  0  0  0  0
    3.0602   -7.4695   27.6089 C   0  0  0  0  0  0  0  0  0  0  0  0
    5.6132   -8.3999   27.9140 N   0  0  0  0  0  0  0  0  0  0  0  0
   -2.1060  -12.9157   19.1264 C   0  0  0  0  0  0  0  0  0  0  0  0
    0.5757   -7.9292   16.3038 C   0  0  0  0  0  0  0  0  0  0  0  0
   -0.4158  -10.9968   17.9112 C   0  0  0  0  0  0  0  0  0  0  0  0
    5.4602  -10.5637   29.7517 O   0  0  0  0  0  0  0  0  0  0  0  0
    1.7721   -5.1788   26.8364 C   0  0  0  0  0  0  0  0  0  0  0  0
    0.4411   -9.8553   17.2151 C   0  0  0  0  0  0  0  0  0  0  0  0
    4.3919   -9.1640   28.5923 C   0  0  0  0  0  0  0  0  0  0  0  0
    2.5208  -10.1729   29.5806 He  0  0  0  0  0  0  0  0  0  0  0  0
   -1.8421  -10.6951   18.1420 He  0  0  0  0  0  0  0  0  0  0  0  0
  1  6  4  0
  1 20  3  0
  2 15  4  0
  2 18  4  0
  2 26  4  0
  3  5  1  0
  3  6  4  0
  3 17  1  0
  3 21  1  0
  4 17  1  0
  4 24  1  0
  5 18  1  0
  5 24  1  0
  6 15  1  0
  6 16  2  0
  6 22  4  0
  7 12  4  0
  7 18  1  0
  7 19  4  0
  7 23  1  0
  7 25  2  0
  8  9  1  0
  8 10  4  0
  8 22  4  0
  8 25  4  0
  9 10  4  0
  9 21  4  0
 11 17  3  0
 11 21  4  0
 11 22  3  0
 11 25  4  0
 12 18  4  0
 13 20  4  0
 14 16  4  0
 14 26  4  0
 15 24  1  0
 17 23  1  0
 18 25  3  0
 19 26  4  0
 20 23  2  0
 21 23  4  0
 22 25  1  0
 23 26  1  0
M  END
$$$$

 Created by Python create_sdf_string function

 28 31  0  0  0  0  0  0  0  0999 V2000
   -0.9217  -13.2453   18.8174 C   0  0  0  0  0  0  0  0  0  0  0  0
    3.1549   -8.4301   28.3863 C   0  0  0  0  0  0  0  0  0  0  0  0
    0.5584   -6.9863   27.5485 C   0  0  0  0  0  0  0  0  0  0  0  0
    0.4189   -4.6355   26.8533 C   0  0  0  0  0  0  0  0  0  0  0  0
    2.2572  -10.0494   29.8112 C   0  0  0  0  0  0  0  0  0  0  0  0
    1.8709   -6.5890   27.3098 N   0  0  0  0  0  0  0  0  0  0  0  0
   -0.0719  -12.2687   18.2368 C   0  0  0  0  0  0  0  0  0  0  0  0
   -1.8741  -10.7076   18.1905 C   0  0  0  0  0  0  0  0  0  0  0  0
    5.3791   -7.5198   27.0751 C   0  0  0  0  0  0  0  0  0  0  0  0
    1.7244  -10.2331   17.2257 C   0  0  0  0  0  0  0  0  0  0  0  0
    2.0151   -8.1119   16.1582 C   0  0  0  0  0  0  0  0  0  0  0  0
    2.5436   -9.2688   16.6243 C   0  0  0  0  0  0  0  0  0  0  0  0
   -0.1789   -8.7958   16.8892 C   0  0  0  0  0  0  0  0  0  0  0  0
    4.1724   -6.8907   26.8849 C   0  0  0  0  0  0  0  0  0  0  0  0
   -2.7238  -11.7064   18.7848 C   0  0  0  0  0  0  0  0  0  0  0  0
    4.5707  -10.0896   29.4945 C   0  0  0  0  0  0  0  0  0  0  0  0
    2.0856   -9.0018   29.0418 N   0  0  0  0  0  0  0  0  0  0  0  0
    3.4255  -10.6129   30.0164 N   0  0  0  0  0  0  0  0  0  0  0  0
   -0.4242   -5.8035   27.3162 C   0  0  0  0  0  0  0  0  0  0  0  0
    3.0557   -7.2919   27.5300 C   0  0  0  0  0  0  0  0  0  0  0  0
    5.5132   -8.5167   27.9610 N   0  0  0  0  0  0  0  0  0  0  0  0
   -2.2125  -12.9541   19.0783 C   0  0  0  0  0  0  0  0  0  0  0  0
    0.6776   -7.8604   16.2846 C   0  0  0  0  0  0  0  0  0  0  0  0
   -0.5163  -10.9849   17.9188 C   0  0  0  0  0  0  0  0  0  0  0  0
    5.6729  -10.5635   29.7484 O   0  0  0  0  0  0  0  0  0  0  0  0
    1.8269   -5.1984   26.8052 C   0  0  0  0  0  0  0  0  0  0  0  0
    0.3359  -10.0146   17.3577 C   0  0  0  0  0  0  0  0  0  0  0  0
    4.3936   -8.9806   28.6157 C   0  0  0  0  0  0  0  0  0  0  0  0
  1  7  4  0
  1 22  4  0
  2 17  4  0
  2 20  4  0
  2 28  4  0
  3  6  1  0
  3 19  1  0
  4 19  1  0
  4 26  1  0
  5 17  4  0
  5 18  4  0
  6 20  1  0
  6 26  1  0
  7 24  4  0
  8 15  4  0
  8 24  4  0
  9 14  4  0
  9 21  4  0
 10 12  4  0
 10 27  4  0
 11 12  4  0
 11 23  4  0
 13 23  4  0
 13 27  4  0
 14 20  4  0
 15 22  4  0
 16 18  4  0
 16 25  2  0
 16 28  4  0
 21 28  4  0
 24 27  1  0
M  END
$$$$

 Created by Python create_sdf_string function

 28 36  0  0  0  0  0  0  0  0999 V2000
   -0.9587  -13.3134   18.7375 C   0  0  0  0  0  0  0  0  0  0  0  0
    2.9982   -8.5586   28.6082 C   0  0  0  0  0  0  0  0  0  0  0  0
    0.6935   -4.8787   26.8480 C   0  0  0  0  0  0  0  0  0  0  0  0
    2.1623  -10.0818   29.9213 C   0  0  0  0  0  0  0  0  0  0  0  0
    1.9199   -6.5431   27.2118 N   0  0  0  0  0  0  0  0  0  0  0  0
   -0.0897  -12.1646   18.3700 C   0  0  0  0  0  0  0  0  0  0  0  0
   -1.7459  -10.6729   18.0086 C   0  0  0  0  0  0  0  0  0  0  0  0
    5.2045   -7.4703   27.0339 C   0  0  0  0  0  0  0  0  0  0  0  0
    2.0813   -7.9795   16.1255 C   0  0  0  0  0  0  0  0  0  0  0  0
    2.6711   -9.2438   16.6166 C   0  0  0  0  0  0  0  0  0  0  0  0
   -0.2182   -8.8977   16.9286 C   0  0  0  0  0  0  0  0  0  0  0  0
    4.1281   -6.9732   27.1461 C   0  0  0  0  0  0  0  0  0  0  0  0
   -2.6266  -11.5267   18.6674 C   0  0  0  0  0  0  0  0  0  0  0  0
    4.5989  -10.2342   29.4487 C   0  0  0  0  0  0  0  0  0  0  0  0
    1.9848   -8.9208   29.2264 N   0  0  0  0  0  0  0  0  0  0  0  0
    3.3508  -10.6660   30.0393 N   0  0  0  0  0  0  0  0  0  0  0  0
   -0.3527   -5.6339   27.5057 C   0  0  0  0  0  0  0  0  0  0  0  0
    3.1036   -7.4227   27.3699 C   0  0  0  0  0  0  0  0  0  0  0  0
    5.4316   -8.5716   27.8877 N   0  0  0  0  0  0  0  0  0  0  0  0
   -2.1863  -12.8032   19.1627 C   0  0  0  0  0  0  0  0  0  0  0  0
    0.7901   -7.8488   16.3134 C   0  0  0  0  0  0  0  0  0  0  0  0
   -0.4815  -11.1196   17.7691 C   0  0  0  0  0  0  0  0  0  0  0  0
    5.6311  -10.4964   29.9166 O   0  0  0  0  0  0  0  0  0  0  0  0
    1.7183   -5.1628   26.9525 C   0  0  0  0  0  0  0  0  0  0  0  0
    0.2291   -9.9857   17.3652 C   0  0  0  0  0  0  0  0  0  0  0  0
    4.5221   -9.0456   28.6888 C   0  0  0  0  0  0  0  0  0  0  0  0
    0.6530   -6.9494   27.5558 He  0  0  0  0  0  0  0  0  0  0  0  0
    1.7040  -10.1660   17.2298 He  0  0  0  0  0  0  0  0  0  0  0  0
  1  6  4  0
  1 14  1  0
  1 20  4  0
  1 23  1  0
  2 15  4  0
  2 18  4  0
  2 20  3  0
  2 26  4  0
  3 17  1  0
  3 24  1  0
  4 15  4  0
  4 16  4  0
  5 18  1  0
  5 24  1  0
  6 22  4  0
  7 13  4  0
  7 22  4  0
  7 25  4  0
  8 12  4  0
  8 19  4  0
  9 10  4  0
  9 21  4  0
 10 22  3  0
 11 21  4  0
 11 25  4  0
 11 26  2  0
 12 18  4  0
 13 20  4  0
 14 16  4  0
 14 23  2  0
 14 26  4  0
 17 24  2  0
 18 21  3  0
 19 26  4  0
 21 25  4  0
 22 25  1  0
M  END
$$$$

 Created by Python create_sdf_string function

 28 31  0  0  0  0  0  0  0  0999 V2000
   -0.9408  -13.2100   18.8565 C   0  0  0  0  0  0  0  0  0  0  0  0
    3.1029   -8.4814   28.4594 C   0  0  0  0  0  0  0  0  0  0  0  0
    0.5554   -6.9507   27.6182 C   0  0  0  0  0  0  0  0  0  0  0  0
    0.5166   -4.7204   26.8046 C   0  0  0  0  0  0  0  0  0  0  0  0
    2.2206  -10.0517   29.9037 C   0  0  0  0  0  0  0  0  0  0  0  0
    1.8609   -6.6546   27.3071 N   0  0  0  0  0  0  0  0  0  0  0  0
   -0.0820  -12.2803   18.2573 C   0  0  0  0  0  0  0  0  0  0  0  0
   -1.8679  -10.6914   18.0794 C   0  0  0  0  0  0  0  0  0  0  0  0
    5.3246   -7.5436   27.1204 C   0  0  0  0  0  0  0  0  0  0  0  0
    1.7328  -10.2059   17.2113 C   0  0  0  0  0  0  0  0  0  0  0  0
    2.0766   -8.0576   16.1930 C   0  0  0  0  0  0  0  0  0  0  0  0
    2.5918   -9.2445   16.6509 C   0  0  0  0  0  0  0  0  0  0  0  0
   -0.1273   -8.7774   16.8616 C   0  0  0  0  0  0  0  0  0  0  0  0
    4.1415   -6.9169   26.9347 C   0  0  0  0  0  0  0  0  0  0  0  0
   -2.7176  -11.6369   18.7166 C   0  0  0  0  0  0  0  0  0  0  0  0
    4.5397  -10.1504   29.5592 C   0  0  0  0  0  0  0  0  0  0  0  0
    2.0268   -8.9751   29.1255 N   0  0  0  0  0  0  0  0  0  0  0  0
    3.3951  -10.6454   30.0917 N   0  0  0  0  0  0  0  0  0  0  0  0
   -0.3410   -5.7240   27.4882 C   0  0  0  0  0  0  0  0  0  0  0  0
    3.0264   -7.3420   27.5855 C   0  0  0  0  0  0  0  0  0  0  0  0
    5.4281   -8.5872   27.9541 N   0  0  0  0  0  0  0  0  0  0  0  0
   -2.2428  -12.8741   19.1031 C   0  0  0  0  0  0  0  0  0  0  0  0
    0.7344   -7.8341   16.3114 C   0  0  0  0  0  0  0  0  0  0  0  0
   -0.5076  -10.9920   17.8949 C   0  0  0  0  0  0  0  0  0  0  0  0
    5.6083  -10.5887   29.8522 O   0  0  0  0  0  0  0  0  0  0  0  0
    1.8913   -5.1971   26.9153 C   0  0  0  0  0  0  0  0  0  0  0  0
    0.3658  -10.0109   17.3280 C   0  0  0  0  0  0  0  0  0  0  0  0
    4.3368   -9.0529   28.6245 C   0  0  0  0  0  0  0  0  0  0  0  0
  1  7  4  0
  1 22  4  0
  2 17  4  0
  2 20  4  0
  2 28  4  0
  3  6  1  0
  3 19  1  0
  4 19  1  0
  4 26  1  0
  5 17  4  0
  5 18  4  0
  6 20  1  0
  6 26  1  0
  7 24  4  0
  8 15  4  0
  8 24  4  0
  9 14  4  0
  9 21  4  0
 10 12  4  0
 10 27  4  0
 11 12  4  0
 11 23  4  0
 13 23  4  0
 13 27  4  0
 14 20  4  0
 15 22  4  0
 16 18  4  0
 16 25  2  0
 16 28  4  0
 21 28  4  0
 24 27  1  0
M  END
$$$$

 Created by Python create_sdf_string function

 28 43  0  0  0  0  0  0  0  0999 V2000
   -0.8821  -13.4066   18.9412 C   0  0  0  0  0  0  0  0  0  0  0  0
    2.9740   -8.3151   28.3716 C   0  0  0  0  0  0  0  0  0  0  0  0
    0.6089   -7.1883   27.6228 C   0  0  0  0  0  0  0  0  0  0  0  0
    0.5043   -4.5921   26.9406 C   0  0  0  0  0  0  0  0  0  0  0  0
    2.2220  -10.1600   29.9473 C   0  0  0  0  0  0  0  0  0  0  0  0
    1.8037   -6.5030   27.1627 N   0  0  0  0  0  0  0  0  0  0  0  0
   -0.0178  -12.2488   18.3793 C   0  0  0  0  0  0  0  0  0  0  0  0
   -1.9816  -10.6616   18.1596 C   0  0  0  0  0  0  0  0  0  0  0  0
    5.2337   -7.5788   27.0909 C   0  0  0  0  0  0  0  0  0  0  0  0
    1.7083  -10.1135   17.3415 C   0  0  0  0  0  0  0  0  0  0  0  0
    2.1242   -8.1401   16.1513 C   0  0  0  0  0  0  0  0  0  0  0  0
   -0.1967   -8.8165   16.7717 C   0  0  0  0  0  0  0  0  0  0  0  0
    4.3313   -7.0567   27.0166 C   0  0  0  0  0  0  0  0  0  0  0  0
   -2.6897  -11.5670   18.7472 C   0  0  0  0  0  0  0  0  0  0  0  0
    4.5753  -10.2733   29.6166 C   0  0  0  0  0  0  0  0  0  0  0  0
    2.1031   -8.9782   28.9806 N   0  0  0  0  0  0  0  0  0  0  0  0
    3.3175  -10.7896   30.0017 N   0  0  0  0  0  0  0  0  0  0  0  0
   -0.5396   -5.7477   27.8039 F   0  0  0  0  0  0  0  0  0  0  0  0
    5.4254   -8.6493   27.8778 N   0  0  0  0  0  0  0  0  0  0  0  0
   -2.1661  -12.8657   19.1595 C   0  0  0  0  0  0  0  0  0  0  0  0
    0.6422   -7.7442   16.3331 C   0  0  0  0  0  0  0  0  0  0  0  0
   -0.4243  -10.8812   17.7396 C   0  0  0  0  0  0  0  0  0  0  0  0
    5.6645  -10.4569   29.8379 O   0  0  0  0  0  0  0  0  0  0  0  0
    1.9024   -4.9851   26.8244 C   0  0  0  0  0  0  0  0  0  0  0  0
    0.2817  -10.0146   17.2246 C   0  0  0  0  0  0  0  0  0  0  0  0
    4.5291   -9.0641   28.4762 C   0  0  0  0  0  0  0  0  0  0  0  0
    2.5864   -9.1317   16.6359 He  0  0  0  0  0  0  0  0  0  0  0  0
    2.9637   -7.3971   27.6257 He  0  0  0  0  0  0  0  0  0  0  0  0
  1  7  4  0
  1  8  3  0
  1 20  4  0
  2 12  3  0
  2 16  4  0
  2 26  4  0
  3  6  1  0
  3 18  1  0
  4 11  4  0
  4 18  1  0
  4 24  1  0
  5 16  4  0
  5 17  4  0
  5 19  2  0
  5 23  3  0
  6 20  4  0
  6 24  1  0
  7 18  1  0
  7 19  3  0
  7 22  4  0
  8 14  4  0
  8 18  2  0
  8 22  4  0
  9 12  4  0
  9 19  4  0
 10 15  2  0
 10 25  4  0
 11 21  4  0
 12 21  4  0
 12 22  1  0
 12 23  2  0
 12 25  4  0
 14 20  4  0
 14 23  4  0
 15 17  4  0
 15 21  1  0
 15 23  2  0
 16 20  2  0
 17 20  1  0
 17 25  2  0
 18 23  4  0
 19 26  4  0
 22 25  1  0
M  END
$$$$

 Created by Python create_sdf_string function

 28 31  0  0  0  0  0  0  0  0999 V2000
   -0.8945  -13.2015   18.9079 C   0  0  0  0  0  0  0  0  0  0  0  0
    3.1048   -8.4905   28.4033 C   0  0  0  0  0  0  0  0  0  0  0  0
    0.5678   -6.9894   27.6551 C   0  0  0  0  0  0  0  0  0  0  0  0
    0.4466   -4.6524   26.9735 C   0  0  0  0  0  0  0  0  0  0  0  0
    2.2283  -10.1031   29.8333 C   0  0  0  0  0  0  0  0  0  0  0  0
    1.8874   -6.6299   27.2997 N   0  0  0  0  0  0  0  0  0  0  0  0
   -0.0404  -12.2254   18.3013 C   0  0  0  0  0  0  0  0  0  0  0  0
   -1.8816  -10.6867   18.1267 C   0  0  0  0  0  0  0  0  0  0  0  0
    5.3308   -7.5884   27.0754 C   0  0  0  0  0  0  0  0  0  0  0  0
    1.7315  -10.1711   17.2543 C   0  0  0  0  0  0  0  0  0  0  0  0
    2.0450   -8.0633   16.2153 C   0  0  0  0  0  0  0  0  0  0  0  0
    2.5591   -9.2028   16.7044 C   0  0  0  0  0  0  0  0  0  0  0  0
   -0.1657   -8.7719   16.8083 C   0  0  0  0  0  0  0  0  0  0  0  0
    4.1574   -6.9190   26.9143 C   0  0  0  0  0  0  0  0  0  0  0  0
   -2.7205  -11.6541   18.7630 C   0  0  0  0  0  0  0  0  0  0  0  0
    4.5299  -10.1696   29.5298 C   0  0  0  0  0  0  0  0  0  0  0  0
    2.0479   -9.0309   29.0531 N   0  0  0  0  0  0  0  0  0  0  0  0
    3.4005  -10.6679   30.0755 N   0  0  0  0  0  0  0  0  0  0  0  0
   -0.3497   -5.7518   27.6575 C   0  0  0  0  0  0  0  0  0  0  0  0
    3.0484   -7.3299   27.5302 C   0  0  0  0  0  0  0  0  0  0  0  0
    5.4499   -8.6232   27.9126 N   0  0  0  0  0  0  0  0  0  0  0  0
   -2.2143  -12.8871   19.1474 C   0  0  0  0  0  0  0  0  0  0  0  0
    0.6959   -7.8336   16.2456 C   0  0  0  0  0  0  0  0  0  0  0  0
   -0.5121  -10.9561   17.9231 C   0  0  0  0  0  0  0  0  0  0  0  0
    5.6081  -10.5856   29.8160 O   0  0  0  0  0  0  0  0  0  0  0  0
    1.8304   -5.1973   26.8660 C   0  0  0  0  0  0  0  0  0  0  0  0
    0.3452   -9.9837   17.3467 C   0  0  0  0  0  0  0  0  0  0  0  0
    4.3377   -9.0641   28.5873 C   0  0  0  0  0  0  0  0  0  0  0  0
  1  7  4  0
  1 22  4  0
  2 17  4  0
  2 20  4  0
  2 28  4  0
  3  6  1  0
  3 19  1  0
  4 19  1  0
  4 26  1  0
  5 17  4  0
  5 18  4  0
  6 20  1  0
  6 26  1  0
  7 24  4  0
  8 15  4  0
  8 24  4  0
  9 14  4  0
  9 21  4  0
 10 12  4  0
 10 27  4  0
 11 12  4  0
 11 23  4  0
 13 23  4  0
 13 27  4  0
 14 20  4  0
 15 22  4  0
 16 18  4  0
 16 25  2  0
 16 28  4  0
 21 28  4  0
 24 27  1  0
M  END
$$$$

 Created by Python create_sdf_string function

 28 37  0  0  0  0  0  0  0  0999 V2000
   -0.8406  -13.1396   18.8765 C   0  0  0  0  0  0  0  0  0  0  0  0
    3.3857   -8.5314   28.3411 C   0  0  0  0  0  0  0  0  0  0  0  0
    0.3754   -7.0866   27.7029 C   0  0  0  0  0  0  0  0  0  0  0  0
    0.2980   -4.7832   26.9766 C   0  0  0  0  0  0  0  0  0  0  0  0
    2.1642  -10.1945   29.8929 C   0  0  0  0  0  0  0  0  0  0  0  0
    1.9967   -6.4049   27.2571 N   0  0  0  0  0  0  0  0  0  0  0  0
   -0.0718  -12.2438   18.4889 C   0  0  0  0  0  0  0  0  0  0  0  0
   -1.9364  -10.7738   18.0116 C   0  0  0  0  0  0  0  0  0  0  0  0
    5.3139   -7.5788   27.1686 C   0  0  0  0  0  0  0  0  0  0  0  0
    1.8407  -10.2188   17.2415 C   0  0  0  0  0  0  0  0  0  0  0  0
    1.8802   -8.0834   15.9821 C   0  0  0  0  0  0  0  0  0  0  0  0
    2.6301   -9.2205   16.5882 C   0  0  0  0  0  0  0  0  0  0  0  0
   -0.2714   -8.5693   16.8959 C   0  0  0  0  0  0  0  0  0  0  0  0
   -2.7065  -11.6993   18.6681 C   0  0  0  0  0  0  0  0  0  0  0  0
    4.5349  -10.1218   29.4528 C   0  0  0  0  0  0  0  0  0  0  0  0
    1.9325   -9.2237   29.0590 N   0  0  0  0  0  0  0  0  0  0  0  0
    3.3694  -10.5782   30.1614 N   0  0  0  0  0  0  0  0  0  0  0  0
   -0.3476   -5.8734   27.9086 C   0  0  0  0  0  0  0  0  0  0  0  0
    3.1587   -7.4389   27.4736 F   0  0  0  0  0  0  0  0  0  0  0  0
    5.1856   -8.6331   27.7793 N   0  0  0  0  0  0  0  0  0  0  0  0
   -2.5208  -12.7989   19.3541 C   0  0  0  0  0  0  0  0  0  0  0  0
    0.7499   -7.7870   16.2919 C   0  0  0  0  0  0  0  0  0  0  0  0
   -0.4638  -10.8545   18.0057 C   0  0  0  0  0  0  0  0  0  0  0  0
    5.6687  -10.5756   29.8426 O   0  0  0  0  0  0  0  0  0  0  0  0
    1.8926   -5.2073   26.7763 C   0  0  0  0  0  0  0  0  0  0  0  0
    0.4377   -9.8421   17.3987 C   0  0  0  0  0  0  0  0  0  0  0  0
    4.5149   -8.9946   28.6112 C   0  0  0  0  0  0  0  0  0  0  0  0
    4.1546   -6.8822   26.9216 He  0  0  0  0  0  0  0  0  0  0  0  0
  1 21  4  0
  2  9  1  0
  2 16  4  0
  2 19  4  0
  2 27  4  0
  3  6  1  0
  4 14  4  0
  4 18  1  0
  4 25  1  0
  5  9  4  0
  5 16  4  0
  5 17  4  0
  5 27  2  0
  6 11  2  0
  6 19  1  0
  6 24  4  0
  6 25  1  0
  7 20  3  0
  7 23  4  0
  8 12  3  0
  8 14  4  0
  8 23  4  0
  9 20  4  0
 10 12  4  0
 10 26  4  0
 11 12  4  0
 11 14  1  0
 11 22  4  0
 13 22  4  0
 13 26  4  0
 14 21  4  0
 15 17  4  0
 15 24  2  0
 15 27  4  0
 20 27  4  0
 21 26  4  0
 23 26  1  0
M  END
$$$$

 Created by Python create_sdf_string function

 28 31  0  0  0  0  0  0  0  0999 V2000
   -0.9237  -13.0976   18.9991 C   0  0  0  0  0  0  0  0  0  0  0  0
    3.1143   -8.5303   28.3866 C   0  0  0  0  0  0  0  0  0  0  0  0
    0.5633   -7.0632   27.7118 C   0  0  0  0  0  0  0  0  0  0  0  0
    0.3832   -4.7998   26.9687 C   0  0  0  0  0  0  0  0  0  0  0  0
    2.2410  -10.0970   29.8372 C   0  0  0  0  0  0  0  0  0  0  0  0
    1.8854   -6.6799   27.3643 N   0  0  0  0  0  0  0  0  0  0  0  0
   -0.0629  -12.1530   18.4357 C   0  0  0  0  0  0  0  0  0  0  0  0
   -1.9231  -10.6675   18.0870 C   0  0  0  0  0  0  0  0  0  0  0  0
    5.3166   -7.5670   27.0626 C   0  0  0  0  0  0  0  0  0  0  0  0
    1.7353  -10.1477   17.2335 C   0  0  0  0  0  0  0  0  0  0  0  0
    2.0012   -8.0696   16.0783 C   0  0  0  0  0  0  0  0  0  0  0  0
    2.5478   -9.2220   16.5547 C   0  0  0  0  0  0  0  0  0  0  0  0
   -0.1636   -8.6948   16.9262 C   0  0  0  0  0  0  0  0  0  0  0  0
    4.1446   -6.9089   26.9181 N   0  0  0  0  0  0  0  0  0  0  0  0
   -2.7714  -11.6158   18.6696 C   0  0  0  0  0  0  0  0  0  0  0  0
    4.5475  -10.1483   29.5401 C   0  0  0  0  0  0  0  0  0  0  0  0
    2.0535   -9.0964   29.0224 N   0  0  0  0  0  0  0  0  0  0  0  0
    3.4200  -10.6065   30.1302 N   0  0  0  0  0  0  0  0  0  0  0  0
   -0.3090   -5.8267   27.8314 C   0  0  0  0  0  0  0  0  0  0  0  0
    3.0584   -7.3465   27.5440 C   0  0  0  0  0  0  0  0  0  0  0  0
    5.4340   -8.5958   27.9154 N   0  0  0  0  0  0  0  0  0  0  0  0
   -2.2794  -12.8400   19.1501 C   0  0  0  0  0  0  0  0  0  0  0  0
    0.6777   -7.7856   16.2539 C   0  0  0  0  0  0  0  0  0  0  0  0
   -0.5248  -10.9065   17.9608 C   0  0  0  0  0  0  0  0  0  0  0  0
    5.6191  -10.5956   29.8325 O   0  0  0  0  0  0  0  0  0  0  0  0
    1.7968   -5.3060   26.8219 C   0  0  0  0  0  0  0  0  0  0  0  0
    0.3543   -9.9214   17.3800 C   0  0  0  0  0  0  0  0  0  0  0  0
    4.3566   -9.0732   28.5691 C   0  0  0  0  0  0  0  0  0  0  0  0
  1  7  4  0
  1 22  4  0
  2 17  4  0
  2 20  4  0
  2 28  4  0
  3  6  1  0
  3 19  1  0
  4 19  1  0
  4 26  1  0
  5 17  4  0
  5 18  4  0
  6 20  1  0
  6 26  1  0
  7 24  4  0
  8 15  4  0
  8 24  4  0
  9 14  4  0
  9 21  4  0
 10 12  4  0
 10 27  4  0
 11 12  4  0
 11 23  4  0
 13 23  4  0
 13 27  4  0
 14 20  4  0
 15 22  4  0
 16 18  4  0
 16 25  2  0
 16 28  4  0
 21 28  4  0
 24 27  1  0
M  END
$$$$

 Created by Python create_sdf_string function

 28 28  0  0  0  0  0  0  0  0999 V2000
    3.1297   -8.5969   28.3455 C   0  0  0  0  0  0  0  0  0  0  0  0
    0.3970   -7.1375   27.7187 C   0  0  0  0  0  0  0  0  0  0  0  0
    0.4377   -4.9476   26.8868 C   0  0  0  0  0  0  0  0  0  0  0  0
    1.8271   -6.7882   27.4955 N   0  0  0  0  0  0  0  0  0  0  0  0
   -0.0444  -12.0576   18.3548 C   0  0  0  0  0  0  0  0  0  0  0  0
   -2.0430  -10.7341   18.1273 C   0  0  0  0  0  0  0  0  0  0  0  0
    5.3397   -7.4629   27.0729 C   0  0  0  0  0  0  0  0  0  0  0  0
    1.8044  -10.1010   17.1922 C   0  0  0  0  0  0  0  0  0  0  0  0
    1.9280   -8.1128   16.1854 C   0  0  0  0  0  0  0  0  0  0  0  0
    2.4772   -9.2703   16.5408 C   0  0  0  0  0  0  0  0  0  0  0  0
   -0.1308   -8.6822   17.0246 C   0  0  0  0  0  0  0  0  0  0  0  0
    4.1756   -6.8034   26.7264 N   0  0  0  0  0  0  0  0  0  0  0  0
   -2.6635  -11.4244   18.7420 N   0  0  0  0  0  0  0  0  0  0  0  0
    4.6638  -10.1376   29.5233 C   0  0  0  0  0  0  0  0  0  0  0  0
    2.1988   -9.1721   28.9700 N   0  0  0  0  0  0  0  0  0  0  0  0
   -0.0924   -5.8848   27.9687 C   0  0  0  0  0  0  0  0  0  0  0  0
    3.0481   -7.3270   27.5786 C   0  0  0  0  0  0  0  0  0  0  0  0
    5.4053   -8.5597   27.8838 N   0  0  0  0  0  0  0  0  0  0  0  0
   -2.2582  -12.7978   19.1165 C   0  0  0  0  0  0  0  0  0  0  0  0
   -0.6265  -10.9202   18.1219 C   0  0  0  0  0  0  0  0  0  0  0  0
    5.6196  -10.5590   29.9128 O   0  0  0  0  0  0  0  0  0  0  0  0
    1.7536   -5.2964   26.7968 C   0  0  0  0  0  0  0  0  0  0  0  0
    0.3890   -9.9465   17.3288 C   0  0  0  0  0  0  0  0  0  0  0  0
    4.2865   -9.0327   28.6461 C   0  0  0  0  0  0  0  0  0  0  0  0
   -0.9294  -13.0038   19.0282 He  0  0  0  0  0  0  0  0  0  0  0  0
    2.2600   -9.9915   29.9666 He  0  0  0  0  0  0  0  0  0  0  0  0
    3.3316  -10.4688   30.0638 He  0  0  0  0  0  0  0  0  0  0  0  0
    0.5996   -7.8420   16.3540 He  0  0  0  0  0  0  0  0  0  0  0  0
  1 14  2  0
  1 15  4  0
  1 17  4  0
  1 24  4  0
  2  4  1  0
  2  6  4  0
  2 16  1  0
  3 16  1  0
  3 22  1  0
  4 10  2  0
  4 22  1  0
  5 20  4  0
  6 13  4  0
  6 20  4  0
  6 22  3  0
  7 12  4  0
  7 18  4  0
  8 10  4  0
  8 23  4  0
  9 10  4  0
  9 24  2  0
 12 17  4  0
 13 19  4  0
 14 21  2  0
 14 24  4  0
 16 18  1  0
 18 24  4  0
 20 23  1  0
M  END
$$$$

 Created by Python create_sdf_string function

 28 31  0  0  0  0  0  0  0  0999 V2000
   -0.9399  -13.0590   19.0040 C   0  0  0  0  0  0  0  0  0  0  0  0
    3.1137   -8.5093   28.3945 C   0  0  0  0  0  0  0  0  0  0  0  0
    0.4816   -7.1068   27.7543 C   0  0  0  0  0  0  0  0  0  0  0  0
    0.3884   -4.8994   26.9113 C   0  0  0  0  0  0  0  0  0  0  0  0
    2.2422  -10.0336   29.8773 C   0  0  0  0  0  0  0  0  0  0  0  0
    1.8705   -6.7471   27.3949 N   0  0  0  0  0  0  0  0  0  0  0  0
   -0.0930  -12.1195   18.4403 C   0  0  0  0  0  0  0  0  0  0  0  0
   -1.9566  -10.6490   18.1687 C   0  0  0  0  0  0  0  0  0  0  0  0
    5.3226   -7.5226   27.0748 C   0  0  0  0  0  0  0  0  0  0  0  0
    1.6931  -10.1708   17.1953 C   0  0  0  0  0  0  0  0  0  0  0  0
    1.9565   -8.0701   16.1463 C   0  0  0  0  0  0  0  0  0  0  0  0
    2.4910   -9.2390   16.5608 C   0  0  0  0  0  0  0  0  0  0  0  0
   -0.1925   -8.6964   16.9879 C   0  0  0  0  0  0  0  0  0  0  0  0
    4.1280   -6.9183   26.9014 N   0  0  0  0  0  0  0  0  0  0  0  0
   -2.7774  -11.5969   18.7435 N   0  0  0  0  0  0  0  0  0  0  0  0
    4.5626  -10.0954   29.5526 C   0  0  0  0  0  0  0  0  0  0  0  0
    2.0663   -9.0701   29.0284 N   0  0  0  0  0  0  0  0  0  0  0  0
    3.4306  -10.5474   30.1648 N   0  0  0  0  0  0  0  0  0  0  0  0
   -0.2248   -5.7930   27.9369 C   0  0  0  0  0  0  0  0  0  0  0  0
    3.0472   -7.3754   27.5305 C   0  0  0  0  0  0  0  0  0  0  0  0
    5.4505   -8.5479   27.9258 N   0  0  0  0  0  0  0  0  0  0  0  0
   -2.2619  -12.7991   19.1744 C   0  0  0  0  0  0  0  0  0  0  0  0
    0.6550   -7.7886   16.3617 C   0  0  0  0  0  0  0  0  0  0  0  0
   -0.5597  -10.8861   17.9920 C   0  0  0  0  0  0  0  0  0  0  0  0
    5.6387  -10.5520   29.8466 O   0  0  0  0  0  0  0  0  0  0  0  0
    1.7868   -5.3936   26.8015 C   0  0  0  0  0  0  0  0  0  0  0  0
    0.3093   -9.9303   17.4086 C   0  0  0  0  0  0  0  0  0  0  0  0
    4.3564   -9.0332   28.5938 C   0  0  0  0  0  0  0  0  0  0  0  0
  1  7  4  0
  1 22  4  0
  2 17  4  0
  2 20  4  0
  2 28  4  0
  3  6  1  0
  3 19  1  0
  4 19  1  0
  4 26  1  0
  5 17  4  0
  5 18  4  0
  6 20  1  0
  6 26  1  0
  7 24  4  0
  8 15  4  0
  8 24  4  0
  9 14  4  0
  9 21  4  0
 10 12  4  0
 10 27  4  0
 11 12  4  0
 11 23  4  0
 13 23  4  0
 13 27  4  0
 14 20  4  0
 15 22  4  0
 16 18  4  0
 16 25  2  0
 16 28  4  0
 21 28  4  0
 24 27  1  0
M  END
$$$$

 Created by Python create_sdf_string function

 28 46  0  0  0  0  0  0  0  0999 V2000
   -0.8282  -13.0976   18.8824 C   0  0  0  0  0  0  0  0  0  0  0  0
    3.1412   -8.4316   28.2730 C   0  0  0  0  0  0  0  0  0  0  0  0
    0.4753   -7.2215   27.6170 C   0  0  0  0  0  0  0  0  0  0  0  0
    0.4217   -4.9189   26.9215 C   0  0  0  0  0  0  0  0  0  0  0  0
    2.3605   -9.9621   29.8409 C   0  0  0  0  0  0  0  0  0  0  0  0
    1.7354   -6.7608   27.5074 N   0  0  0  0  0  0  0  0  0  0  0  0
   -0.1164  -12.1921   18.4835 C   0  0  0  0  0  0  0  0  0  0  0  0
   -1.9274  -10.6329   18.4132 C   0  0  0  0  0  0  0  0  0  0  0  0
    5.2982   -7.5489   26.9765 C   0  0  0  0  0  0  0  0  0  0  0  0
    1.6045  -10.1659   17.3069 C   0  0  0  0  0  0  0  0  0  0  0  0
    1.9491   -8.1298   16.2023 C   0  0  0  0  0  0  0  0  0  0  0  0
    2.5014   -9.2140   16.4830 C   0  0  0  0  0  0  0  0  0  0  0  0
   -0.2387   -8.6814   16.9120 C   0  0  0  0  0  0  0  0  0  0  0  0
    4.0246   -6.8223   26.9228 N   0  0  0  0  0  0  0  0  0  0  0  0
   -2.9571  -11.5868   18.6802 N   0  0  0  0  0  0  0  0  0  0  0  0
    4.6921  -10.0481   29.5988 C   0  0  0  0  0  0  0  0  0  0  0  0
    2.1732   -9.0903   28.9766 N   0  0  0  0  0  0  0  0  0  0  0  0
    3.4177  -10.6422   30.1039 O   0  0  0  0  0  0  0  0  0  0  0  0
   -0.2655   -5.8567   28.0068 C   0  0  0  0  0  0  0  0  0  0  0  0
    3.0206   -7.4278   27.5005 C   0  0  0  0  0  0  0  0  0  0  0  0
    5.4356   -8.3861   27.8412 N   0  0  0  0  0  0  0  0  0  0  0  0
   -2.3931  -12.8421   19.2755 C   0  0  0  0  0  0  0  0  0  0  0  0
    0.7330   -7.7446   16.3769 C   0  0  0  0  0  0  0  0  0  0  0  0
   -0.6821  -10.8968   17.8883 C   0  0  0  0  0  0  0  0  0  0  0  0
    5.6949  -10.4848   29.8030 O   0  0  0  0  0  0  0  0  0  0  0  0
    1.7400   -5.3689   26.8971 C   0  0  0  0  0  0  0  0  0  0  0  0
    0.5152   -9.8968   17.2557 C   0  0  0  0  0  0  0  0  0  0  0  0
    4.2875   -9.0214   28.5461 C   0  0  0  0  0  0  0  0  0  0  0  0
  1  7  4  0
  1 22  4  0
  2  4  3  0
  2 17  4  0
  2 20  4  0
  2 28  4  0
  3  6  1  0
  3 19  1  0
  4  9  4  0
  4 19  1  0
  4 26  1  0
  5 17  4  0
  5 18  4  0
  5 20  1  0
  5 26  1  0
  6 13  1  0
  6 20  1  0
  6 26  1  0
  7 24  4  0
  8  9  3  0
  8 14  4  0
  8 15  4  0
  8 22  3  0
  8 24  4  0
  9 14  4  0
  9 15  4  0
  9 21  4  0
 10 12  4  0
 10 22  3  0
 10 24  1  0
 10 27  4  0
 11 12  4  0
 11 23  4  0
 12 18  1  0
 13 23  4  0
 13 27  4  0
 14 20  4  0
 14 23  2  0
 15 22  4  0
 16 18  4  0
 16 25  2  0
 16 28  4  0
 19 24  3  0
 20 22  3  0
 21 28  4  0
 24 27  1  0
M  END
$$$$

 Created by Python create_sdf_string function

 28 31  0  0  0  0  0  0  0  0999 V2000
   -0.9792  -13.1225   18.9627 C   0  0  0  0  0  0  0  0  0  0  0  0
    3.1235   -8.4775   28.3820 C   0  0  0  0  0  0  0  0  0  0  0  0
    0.4807   -7.1413   27.6909 C   0  0  0  0  0  0  0  0  0  0  0  0
    0.3444   -4.8888   26.9603 C   0  0  0  0  0  0  0  0  0  0  0  0
    2.3089  -10.0246   29.8295 C   0  0  0  0  0  0  0  0  0  0  0  0
    1.8270   -6.7248   27.3886 N   0  0  0  0  0  0  0  0  0  0  0  0
   -0.1394  -12.1469   18.3871 C   0  0  0  0  0  0  0  0  0  0  0  0
   -1.9695  -10.6277   18.2267 C   0  0  0  0  0  0  0  0  0  0  0  0
    5.2498   -7.4812   27.0124 C   0  0  0  0  0  0  0  0  0  0  0  0
    1.6704  -10.1847   17.1830 C   0  0  0  0  0  0  0  0  0  0  0  0
    1.9889   -8.0597   16.1748 C   0  0  0  0  0  0  0  0  0  0  0  0
    2.4930   -9.2412   16.5885 C   0  0  0  0  0  0  0  0  0  0  0  0
   -0.2076   -8.6802   16.9478 C   0  0  0  0  0  0  0  0  0  0  0  0
    4.0481   -6.9189   26.8732 N   0  0  0  0  0  0  0  0  0  0  0  0
   -2.8308  -11.5694   18.8196 C   0  0  0  0  0  0  0  0  0  0  0  0
    4.6259  -10.0571   29.5072 C   0  0  0  0  0  0  0  0  0  0  0  0
    2.0988   -9.0520   29.0088 N   0  0  0  0  0  0  0  0  0  0  0  0
    3.5067  -10.5425   30.1175 N   0  0  0  0  0  0  0  0  0  0  0  0
   -0.3023   -5.8507   27.9311 C   0  0  0  0  0  0  0  0  0  0  0  0
    3.0019   -7.3542   27.5320 C   0  0  0  0  0  0  0  0  0  0  0  0
    5.4373   -8.4895   27.8557 N   0  0  0  0  0  0  0  0  0  0  0  0
   -2.3245  -12.8346   19.1772 C   0  0  0  0  0  0  0  0  0  0  0  0
    0.6657   -7.7650   16.3403 C   0  0  0  0  0  0  0  0  0  0  0  0
   -0.5860  -10.8802   18.0114 C   0  0  0  0  0  0  0  0  0  0  0  0
    5.7177  -10.4722   29.7855 O   0  0  0  0  0  0  0  0  0  0  0  0
    1.7452   -5.3617   26.8618 C   0  0  0  0  0  0  0  0  0  0  0  0
    0.2873   -9.9188   17.3980 C   0  0  0  0  0  0  0  0  0  0  0  0
    4.3728   -8.9854   28.5624 C   0  0  0  0  0  0  0  0  0  0  0  0
  1  7  4  0
  1 22  4  0
  2 17  4  0
  2 20  4  0
  2 28  4  0
  3  6  1  0
  3 19  1  0
  4 19  1  0
  4 26  1  0
  5 17  4  0
  5 18  4  0
  6 20  1  0
  6 26  1  0
  7 24  4  0
  8 15  4  0
  8 24  4  0
  9 14  4  0
  9 21  4  0
 10 12  4  0
 10 27  4  0
 11 12  4  0
 11 23  4  0
 13 23  4  0
 13 27  4  0
 14 20  4  0
 15 22  4  0
 16 18  4  0
 16 25  2  0
 16 28  4  0
 21 28  4  0
 24 27  1  0
M  END
$$$$

 Created by Python create_sdf_string function

 28 38  0  0  0  0  0  0  0  0999 V2000
   -0.9546  -13.1992   18.9572 C   0  0  0  0  0  0  0  0  0  0  0  0
    3.2612   -8.5185   28.3172 C   0  0  0  0  0  0  0  0  0  0  0  0
    0.4261   -7.2212   27.7075 C   0  0  0  0  0  0  0  0  0  0  0  0
    0.3085   -5.0108   26.8650 C   0  0  0  0  0  0  0  0  0  0  0  0
    2.5373   -9.9930   29.9248 C   0  0  0  0  0  0  0  0  0  0  0  0
    1.8618   -6.6810   27.3861 N   0  0  0  0  0  0  0  0  0  0  0  0
   -0.1556  -12.2660   18.3583 C   0  0  0  0  0  0  0  0  0  0  0  0
   -1.9171  -10.5533   18.3484 C   0  0  0  0  0  0  0  0  0  0  0  0
    5.2671   -7.4967   26.9874 C   0  0  0  0  0  0  0  0  0  0  0  0
    1.6519  -10.2463   17.0984 C   0  0  0  0  0  0  0  0  0  0  0  0
    1.9630   -7.9584   16.2008 C   0  0  0  0  0  0  0  0  0  0  0  0
    2.4456   -9.2461   16.6140 C   0  0  0  0  0  0  0  0  0  0  0  0
   -0.0500   -8.7093   16.7995 C   0  0  0  0  0  0  0  0  0  0  0  0
    3.8797   -6.9026   26.8392 N   0  0  0  0  0  0  0  0  0  0  0  0
   -2.8627  -11.5625   18.7043 C   0  0  0  0  0  0  0  0  0  0  0  0
    4.5560  -10.0065   29.4365 C   0  0  0  0  0  0  0  0  0  0  0  0
    2.1384   -9.1211   29.1053 N   0  0  0  0  0  0  0  0  0  0  0  0
    3.5729  -10.6633   30.1294 N   0  0  0  0  0  0  0  0  0  0  0  0
   -0.3626   -5.7744   27.9620 C   0  0  0  0  0  0  0  0  0  0  0  0
    2.9127   -7.2887   27.6097 C   0  0  0  0  0  0  0  0  0  0  0  0
    5.5537   -8.5374   27.8310 N   0  0  0  0  0  0  0  0  0  0  0  0
   -2.2955  -12.8771   19.1981 C   0  0  0  0  0  0  0  0  0  0  0  0
    0.6911   -7.7787   16.3829 C   0  0  0  0  0  0  0  0  0  0  0  0
   -0.7852  -10.8606   17.9284 C   0  0  0  0  0  0  0  0  0  0  0  0
    5.6196  -10.5704   29.7995 O   0  0  0  0  0  0  0  0  0  0  0  0
    1.6767   -5.4666   26.9330 C   0  0  0  0  0  0  0  0  0  0  0  0
    0.3133  -10.0053   17.4249 C   0  0  0  0  0  0  0  0  0  0  0  0
    4.3260   -8.8286   28.5499 C   0  0  0  0  0  0  0  0  0  0  0  0
  1  7  4  0
  1 22  4  0
  2 16  4  0
  2 17  4  0
  2 20  4  0
  2 28  4  0
  3  6  1  0
  3 15  4  0
  3 19  2  0
  4 19  1  0
  4 25  4  0
  4 26  1  0
  5 17  4  0
  5 18  4  0
  5 24  1  0
  6 20  1  0
  6 24  1  0
  6 25  4  0
  6 26  1  0
  7 17  1  0
  8 15  4  0
  8 24  4  0
  9 14  4  0
 10 12  4  0
 10 27  4  0
 11 12  4  0
 11 23  4  0
 12 27  3  0
 13 23  4  0
 13 27  4  0
 14 20  4  0
 15 22  2  0
 16 18  4  0
 16 25  2  0
 16 28  4  0
 18 21  4  0
 21 28  4  0
 24 27  1  0
M  END
$$$$

 Created by Python create_sdf_string function

 28 31  0  0  0  0  0  0  0  0999 V2000
   -0.9899  -13.1685   18.9326 C   0  0  0  0  0  0  0  0  0  0  0  0
    3.1463   -8.4841   28.4336 C   0  0  0  0  0  0  0  0  0  0  0  0
    0.4662   -7.1401   27.7797 C   0  0  0  0  0  0  0  0  0  0  0  0
    0.2990   -4.9662   26.8788 C   0  0  0  0  0  0  0  0  0  0  0  0
    2.3865  -10.0224   29.8996 C   0  0  0  0  0  0  0  0  0  0  0  0
    1.7873   -6.7280   27.4340 N   0  0  0  0  0  0  0  0  0  0  0  0
   -0.1583  -12.1971   18.3411 C   0  0  0  0  0  0  0  0  0  0  0  0
   -1.9523  -10.6022   18.2299 C   0  0  0  0  0  0  0  0  0  0  0  0
    5.2245   -7.4772   26.9852 C   0  0  0  0  0  0  0  0  0  0  0  0
    1.6726  -10.1979   17.1375 C   0  0  0  0  0  0  0  0  0  0  0  0
    2.0214   -8.0275   16.2192 C   0  0  0  0  0  0  0  0  0  0  0  0
    2.5049   -9.2398   16.5927 C   0  0  0  0  0  0  0  0  0  0  0  0
   -0.1501   -8.6981   16.9115 C   0  0  0  0  0  0  0  0  0  0  0  0
    4.0148   -6.9407   26.8864 N   0  0  0  0  0  0  0  0  0  0  0  0
   -2.8185  -11.5772   18.8039 C   0  0  0  0  0  0  0  0  0  0  0  0
    4.6454  -10.0668   29.4819 C   0  0  0  0  0  0  0  0  0  0  0  0
    2.1539   -9.0460   29.1170 N   0  0  0  0  0  0  0  0  0  0  0  0
    3.5489  -10.5383   30.1204 N   0  0  0  0  0  0  0  0  0  0  0  0
   -0.3525   -5.8534   27.8863 C   0  0  0  0  0  0  0  0  0  0  0  0
    2.9649   -7.3690   27.5564 C   0  0  0  0  0  0  0  0  0  0  0  0
    5.4658   -8.4757   27.8364 N   0  0  0  0  0  0  0  0  0  0  0  0
   -2.3340  -12.8534   19.1671 C   0  0  0  0  0  0  0  0  0  0  0  0
    0.6841   -7.7576   16.3576 C   0  0  0  0  0  0  0  0  0  0  0  0
   -0.5947  -10.9204   17.9809 C   0  0  0  0  0  0  0  0  0  0  0  0
    5.7047  -10.5161   29.7274 O   0  0  0  0  0  0  0  0  0  0  0  0
    1.7031   -5.3985   26.8632 C   0  0  0  0  0  0  0  0  0  0  0  0
    0.2959   -9.9457   17.3418 C   0  0  0  0  0  0  0  0  0  0  0  0
    4.4003   -8.9709   28.5407 C   0  0  0  0  0  0  0  0  0  0  0  0
  1  7  4  0
  1 22  4  0
  2 17  4  0
  2 20  4  0
  2 28  4  0
  3  6  1  0
  3 19  1  0
  4 19  1  0
  4 26  1  0
  5 17  4  0
  5 18  4  0
  6 20  1  0
  6 26  1  0
  7 24  4  0
  8 15  4  0
  8 24  4  0
  9 14  4  0
  9 21  4  0
 10 12  4  0
 10 27  4  0
 11 12  4  0
 11 23  4  0
 13 23  4  0
 13 27  4  0
 14 20  4  0
 15 22  4  0
 16 18  4  0
 16 25  2  0
 16 28  4  0
 21 28  4  0
 24 27  1  0
M  END
$$$$

 Created by Python create_sdf_string function

 28 39  0  0  0  0  0  0  0  0999 V2000
   -1.0551  -13.2477   18.8787 C   0  0  0  0  0  0  0  0  0  0  0  0
    3.1773   -8.5197   28.4767 C   0  0  0  0  0  0  0  0  0  0  0  0
    0.4611   -7.0462   27.6305 C   0  0  0  0  0  0  0  0  0  0  0  0
    0.4902   -4.9647   26.9913 C   0  0  0  0  0  0  0  0  0  0  0  0
    2.4956  -10.0196   29.9423 C   0  0  0  0  0  0  0  0  0  0  0  0
    1.9163   -6.8222   27.5149 N   0  0  0  0  0  0  0  0  0  0  0  0
   -0.0904  -12.2156   18.4628 C   0  0  0  0  0  0  0  0  0  0  0  0
   -1.9968  -10.5382   18.2521 C   0  0  0  0  0  0  0  0  0  0  0  0
    5.1447   -7.5645   27.0409 C   0  0  0  0  0  0  0  0  0  0  0  0
    1.7014  -10.1708   17.1333 C   0  0  0  0  0  0  0  0  0  0  0  0
    1.9229   -8.0460   16.2319 C   0  0  0  0  0  0  0  0  0  0  0  0
    2.4802   -9.2041   16.6193 C   0  0  0  0  0  0  0  0  0  0  0  0
   -0.1111   -8.6853   16.7873 C   0  0  0  0  0  0  0  0  0  0  0  0
    3.9939   -6.7843   26.8622 N   0  0  0  0  0  0  0  0  0  0  0  0
   -2.7221  -11.6086   18.6984 C   0  0  0  0  0  0  0  0  0  0  0  0
    4.6195  -10.1387   29.4996 C   0  0  0  0  0  0  0  0  0  0  0  0
    2.1211   -9.0368   29.0499 N   0  0  0  0  0  0  0  0  0  0  0  0
    3.5222  -10.5282   30.0860 N   0  0  0  0  0  0  0  0  0  0  0  0
   -0.4215   -5.9381   27.8157 C   0  0  0  0  0  0  0  0  0  0  0  0
    2.8931   -7.3914   27.5463 C   0  0  0  0  0  0  0  0  0  0  0  0
    5.4753   -8.6289   27.7623 N   0  0  0  0  0  0  0  0  0  0  0  0
   -2.4078  -12.7730   19.1085 C   0  0  0  0  0  0  0  0  0  0  0  0
    0.6369   -7.7306   16.2818 C   0  0  0  0  0  0  0  0  0  0  0  0
   -0.6482  -11.0105   18.0732 C   0  0  0  0  0  0  0  0  0  0  0  0
    5.7067  -10.5551   29.6341 O   0  0  0  0  0  0  0  0  0  0  0  0
    1.7534   -5.3594   26.8948 C   0  0  0  0  0  0  0  0  0  0  0  0
    0.3036   -9.9896   17.3592 C   0  0  0  0  0  0  0  0  0  0  0  0
    4.4216   -8.9420   28.4426 C   0  0  0  0  0  0  0  0  0  0  0  0
  1  7  4  0
  1 22  4  0
  2 17  4  0
  2 20  4  0
  2 28  4  0
  3 13  2  0
  3 19  1  0
  4 16  2  0
  4 19  1  0
  4 21  3  0
  4 26  1  0
  5 17  4  0
  5 18  4  0
  6 20  1  0
  6 26  1  0
  7 24  4  0
  8 15  4  0
  8 24  4  0
  9 14  4  0
  9 21  4  0
 10 12  4  0
 10 27  4  0
 11 12  4  0
 11 15  1  0
 11 23  4  0
 11 26  1  0
 12 17  1  0
 13 23  4  0
 13 27  4  0
 14 20  4  0
 15 22  4  0
 16 18  4  0
 16 25  2  0
 16 27  1  0
 16 28  4  0
 19 26  1  0
 21 28  4  0
 22 23  4  0
 24 27  1  0
M  END
$$$$

 Created by Python create_sdf_string function

 28 31  0  0  0  0  0  0  0  0999 V2000
   -1.0390  -13.1809   18.9174 C   0  0  0  0  0  0  0  0  0  0  0  0
    3.1298   -8.4989   28.4201 C   0  0  0  0  0  0  0  0  0  0  0  0
    0.4643   -7.1393   27.6819 C   0  0  0  0  0  0  0  0  0  0  0  0
    0.4060   -4.8822   26.9801 C   0  0  0  0  0  0  0  0  0  0  0  0
    2.3819  -10.0072   29.9295 C   0  0  0  0  0  0  0  0  0  0  0  0
    1.8028   -6.7329   27.4750 N   0  0  0  0  0  0  0  0  0  0  0  0
   -0.1585  -12.2160   18.4060 C   0  0  0  0  0  0  0  0  0  0  0  0
   -1.9618  -10.6087   18.2156 C   0  0  0  0  0  0  0  0  0  0  0  0
    5.1909   -7.5298   26.9841 C   0  0  0  0  0  0  0  0  0  0  0  0
    1.6721  -10.1867   17.1940 C   0  0  0  0  0  0  0  0  0  0  0  0
    1.9931   -8.0390   16.2012 C   0  0  0  0  0  0  0  0  0  0  0  0
    2.5008   -9.2244   16.6224 C   0  0  0  0  0  0  0  0  0  0  0  0
   -0.1761   -8.7198   16.8649 C   0  0  0  0  0  0  0  0  0  0  0  0
    4.0218   -6.9220   26.9140 N   0  0  0  0  0  0  0  0  0  0  0  0
   -2.8285  -11.5816   18.7587 C   0  0  0  0  0  0  0  0  0  0  0  0
    4.6395  -10.0990   29.4460 C   0  0  0  0  0  0  0  0  0  0  0  0
    2.1251   -9.0230   29.1193 N   0  0  0  0  0  0  0  0  0  0  0  0
    3.5555  -10.5314   30.1108 N   0  0  0  0  0  0  0  0  0  0  0  0
   -0.3866   -5.8929   27.7595 C   0  0  0  0  0  0  0  0  0  0  0  0
    2.9682   -7.3729   27.5924 C   0  0  0  0  0  0  0  0  0  0  0  0
    5.4469   -8.5552   27.7766 N   0  0  0  0  0  0  0  0  0  0  0  0
   -2.3882  -12.8579   19.0997 C   0  0  0  0  0  0  0  0  0  0  0  0
    0.6510   -7.7711   16.2945 C   0  0  0  0  0  0  0  0  0  0  0  0
   -0.6093  -10.9473   18.0093 C   0  0  0  0  0  0  0  0  0  0  0  0
    5.7159  -10.5605   29.6364 O   0  0  0  0  0  0  0  0  0  0  0  0
    1.7714   -5.3741   26.8888 C   0  0  0  0  0  0  0  0  0  0  0  0
    0.2920   -9.9564   17.3642 C   0  0  0  0  0  0  0  0  0  0  0  0
    4.3886   -9.0180   28.5165 C   0  0  0  0  0  0  0  0  0  0  0  0
  1  7  4  0
  1 22  4  0
  2 17  4  0
  2 20  4  0
  2 28  4  0
  3  6  1  0
  3 19  1  0
  4 19  1  0
  4 26  1  0
  5 17  4  0
  5 18  4  0
  6 20  1  0
  6 26  1  0
  7 24  4  0
  8 15  4  0
  8 24  4  0
  9 14  4  0
  9 21  4  0
 10 12  4  0
 10 27  4  0
 11 12  4  0
 11 23  4  0
 13 23  4  0
 13 27  4  0
 14 20  4  0
 15 22  4  0
 16 18  4  0
 16 25  2  0
 16 28  4  0
 21 28  4  0
 24 27  1  0
M  END
$$$$

 Created by Python create_sdf_string function

 28 31  0  0  0  0  0  0  0  0999 V2000
   -1.0338  -13.1660   18.8154 C   0  0  0  0  0  0  0  0  0  0  0  0
    3.0502   -8.5682   28.4799 C   0  0  0  0  0  0  0  0  0  0  0  0
    0.6438   -7.1060   27.7111 C   0  0  0  0  0  0  0  0  0  0  0  0
    0.3239   -5.0523   26.9719 C   0  0  0  0  0  0  0  0  0  0  0  0
    2.5103  -10.0473   29.8925 C   0  0  0  0  0  0  0  0  0  0  0  0
    1.7587   -6.7666   27.5175 N   0  0  0  0  0  0  0  0  0  0  0  0
   -0.2129  -12.1962   18.3555 C   0  0  0  0  0  0  0  0  0  0  0  0
   -1.8535  -10.6522   18.0630 C   0  0  0  0  0  0  0  0  0  0  0  0
    5.1476   -7.4988   27.0029 C   0  0  0  0  0  0  0  0  0  0  0  0
    1.9493   -8.0909   16.1579 C   0  0  0  0  0  0  0  0  0  0  0  0
    2.5235   -9.0849   16.6558 C   0  0  0  0  0  0  0  0  0  0  0  0
   -0.1472   -8.6879   16.8632 C   0  0  0  0  0  0  0  0  0  0  0  0
    4.1355   -6.9422   26.8554 N   0  0  0  0  0  0  0  0  0  0  0  0
   -2.7802  -11.5691   18.8728 C   0  0  0  0  0  0  0  0  0  0  0  0
    4.6027  -10.0041   29.4997 C   0  0  0  0  0  0  0  0  0  0  0  0
    2.0914   -8.9625   29.1592 N   0  0  0  0  0  0  0  0  0  0  0  0
   -0.4826   -5.9071   27.6408 C   0  0  0  0  0  0  0  0  0  0  0  0
    2.9838   -7.4051   27.5088 C   0  0  0  0  0  0  0  0  0  0  0  0
    5.4453   -8.5831   27.9247 N   0  0  0  0  0  0  0  0  0  0  0  0
   -2.3972  -12.8207   19.1736 C   0  0  0  0  0  0  0  0  0  0  0  0
   -0.6722  -10.9865   18.1196 C   0  0  0  0  0  0  0  0  0  0  0  0
    5.6709  -10.6061   29.5860 O   0  0  0  0  0  0  0  0  0  0  0  0
    1.6055   -5.4048   26.8251 C   0  0  0  0  0  0  0  0  0  0  0  0
    0.2817   -9.7786   17.3664 C   0  0  0  0  0  0  0  0  0  0  0  0
    4.4123   -8.9979   28.5965 C   0  0  0  0  0  0  0  0  0  0  0  0
    1.7000  -10.1379   17.1350 He  0  0  0  0  0  0  0  0  0  0  0  0
    3.5724  -10.5944   30.0489 He  0  0  0  0  0  0  0  0  0  0  0  0
    0.6362   -7.8094   16.2769 He  0  0  0  0  0  0  0  0  0  0  0  0
  1  7  4  0
  1 12  4  0
  1 20  4  0
  2 16  4  0
  2 18  4  0
  2 19  4  0
  2 25  4  0
  3  4  3  0
  3  6  1  0
  3 17  1  0
  4 17  1  0
  4 23  1  0
  5 16  4  0
  5 24  3  0
  6 14  4  0
  6 18  1  0
  6 23  1  0
  8 14  4  0
  8 21  4  0
  9 13  4  0
  9 18  1  0
  9 19  4  0
 10 11  4  0
 12 24  4  0
 13 18  4  0
 13 25  2  0
 14 20  4  0
 15 22  2  0
 15 25  4  0
 19 25  4  0
 21 24  1  0
M  END
$$$$

 Created by Python create_sdf_string function

 28 31  0  0  0  0  0  0  0  0999 V2000
   -1.0209  -13.1518   18.8908 C   0  0  0  0  0  0  0  0  0  0  0  0
    3.1261   -8.4819   28.4552 C   0  0  0  0  0  0  0  0  0  0  0  0
    0.4952   -7.1433   27.7971 C   0  0  0  0  0  0  0  0  0  0  0  0
    0.3023   -4.9326   26.9060 C   0  0  0  0  0  0  0  0  0  0  0  0
    2.3751  -10.0451   29.9454 C   0  0  0  0  0  0  0  0  0  0  0  0
    1.8087   -6.7261   27.4516 N   0  0  0  0  0  0  0  0  0  0  0  0
   -0.1575  -12.2029   18.3341 C   0  0  0  0  0  0  0  0  0  0  0  0
   -1.9432  -10.6143   18.2208 C   0  0  0  0  0  0  0  0  0  0  0  0
    5.2091   -7.5210   27.0115 C   0  0  0  0  0  0  0  0  0  0  0  0
    1.6566  -10.1273   17.2523 C   0  0  0  0  0  0  0  0  0  0  0  0
    1.9594   -8.0198   16.1597 C   0  0  0  0  0  0  0  0  0  0  0  0
    2.4772   -9.1791   16.6368 C   0  0  0  0  0  0  0  0  0  0  0  0
   -0.2092   -8.6944   16.8835 C   0  0  0  0  0  0  0  0  0  0  0  0
    4.0203   -6.9587   26.8798 N   0  0  0  0  0  0  0  0  0  0  0  0
   -2.8133  -11.5746   18.7936 C   0  0  0  0  0  0  0  0  0  0  0  0
    4.6516  -10.1234   29.4592 C   0  0  0  0  0  0  0  0  0  0  0  0
    2.1224   -9.0237   29.1419 N   0  0  0  0  0  0  0  0  0  0  0  0
    3.5679  -10.5928   30.1377 N   0  0  0  0  0  0  0  0  0  0  0  0
   -0.4573   -5.9677   27.6557 C   0  0  0  0  0  0  0  0  0  0  0  0
    2.9911   -7.3703   27.5752 C   0  0  0  0  0  0  0  0  0  0  0  0
    5.4324   -8.5154   27.8577 N   0  0  0  0  0  0  0  0  0  0  0  0
   -2.3476  -12.8529   19.1411 C   0  0  0  0  0  0  0  0  0  0  0  0
    0.6332   -7.7782   16.2725 C   0  0  0  0  0  0  0  0  0  0  0  0
   -0.6039  -10.9137   17.9642 C   0  0  0  0  0  0  0  0  0  0  0  0
    5.7337  -10.5783   29.6490 O   0  0  0  0  0  0  0  0  0  0  0  0
    1.7019   -5.4228   26.8007 C   0  0  0  0  0  0  0  0  0  0  0  0
    0.2862   -9.9289   17.3679 C   0  0  0  0  0  0  0  0  0  0  0  0
    4.3749   -9.0211   28.5766 C   0  0  0  0  0  0  0  0  0  0  0  0
  1  7  4  0
  1 22  4  0
  2 17  4  0
  2 20  4  0
  2 28  4  0
  3  6  1  0
  3 19  1  0
  4 19  1  0
  4 26  1  0
  5 17  4  0
  5 18  4  0
  6 20  1  0
  6 26  1  0
  7 24  4  0
  8 15  4  0
  8 24  4  0
  9 14  4  0
  9 21  4  0
 10 12  4  0
 10 27  4  0
 11 12  4  0
 11 23  4  0
 13 23  4  0
 13 27  4  0
 14 20  4  0
 15 22  4  0
 16 18  4  0
 16 25  2  0
 16 28  4  0
 21 28  4  0
 24 27  1  0
M  END
$$$$

 Created by Python create_sdf_string function

 28 29  0  0  0  0  0  0  0  0999 V2000
   -1.0558  -13.1434   18.8857 F   0  0  0  0  0  0  0  0  0  0  0  0
    3.1659   -8.4909   28.4239 C   0  0  0  0  0  0  0  0  0  0  0  0
    0.4325   -7.1585   27.8898 C   0  0  0  0  0  0  0  0  0  0  0  0
    0.4086   -5.0245   26.8307 C   0  0  0  0  0  0  0  0  0  0  0  0
    2.3210   -9.9553   29.9698 C   0  0  0  0  0  0  0  0  0  0  0  0
    1.8720   -6.7893   27.5965 N   0  0  0  0  0  0  0  0  0  0  0  0
   -0.1880  -12.1764   18.3719 C   0  0  0  0  0  0  0  0  0  0  0  0
   -2.0039  -10.7277   18.0108 C   0  0  0  0  0  0  0  0  0  0  0  0
    5.2292   -7.4949   27.0357 C   0  0  0  0  0  0  0  0  0  0  0  0
    1.5437  -10.0951   17.2005 C   0  0  0  0  0  0  0  0  0  0  0  0
    1.9410   -8.1062   16.1177 C   0  0  0  0  0  0  0  0  0  0  0  0
    2.4234   -9.1213   16.5769 C   0  0  0  0  0  0  0  0  0  0  0  0
   -0.1930   -8.7030   16.7510 C   0  0  0  0  0  0  0  0  0  0  0  0
    3.9925   -6.8856   26.7382 N   0  0  0  0  0  0  0  0  0  0  0  0
   -2.8285  -11.5199   18.7733 C   0  0  0  0  0  0  0  0  0  0  0  0
    4.7206   -9.9986   29.4775 C   0  0  0  0  0  0  0  0  0  0  0  0
    2.1770   -8.9535   29.1240 N   0  0  0  0  0  0  0  0  0  0  0  0
   -0.4349   -6.0651   27.5891 C   0  0  0  0  0  0  0  0  0  0  0  0
    3.0016   -7.3997   27.5507 C   0  0  0  0  0  0  0  0  0  0  0  0
    5.4446   -8.6356   27.9760 N   0  0  0  0  0  0  0  0  0  0  0  0
   -2.3148  -12.7964   19.1741 C   0  0  0  0  0  0  0  0  0  0  0  0
    0.5785   -7.7483   16.1867 C   0  0  0  0  0  0  0  0  0  0  0  0
   -0.5280  -10.7814   17.9700 C   0  0  0  0  0  0  0  0  0  0  0  0
    5.8132  -10.6194   29.7293 O   0  0  0  0  0  0  0  0  0  0  0  0
    1.6926   -5.5162   26.7086 C   0  0  0  0  0  0  0  0  0  0  0  0
    0.3517   -9.9851   17.3656 C   0  0  0  0  0  0  0  0  0  0  0  0
    3.5636  -10.5417   30.0856 He  0  0  0  0  0  0  0  0  0  0  0  0
    4.4160   -8.9415   28.5419 He  0  0  0  0  0  0  0  0  0  0  0  0
  1  7  4  0
  1 21  4  0
  2  8  4  0
  2 17  4  0
  2 19  4  0
  3  6  1  0
  3 18  1  0
  4 10  3  0
  4 18  1  0
  4 25  1  0
  5  8  4  0
  5 17  4  0
  6 19  1  0
  6 25  1  0
  7 23  4  0
  8 15  2  0
  8 23  4  0
  9 14  4  0
  9 20  4  0
 10 12  4  0
 10 24  1  0
 10 26  4  0
 11 12  4  0
 13 22  4  0
 13 26  4  0
 15 21  4  0
 16 24  2  0
 18 24  3  0
 23 26  1  0
M  END
$$$$

 Created by Python create_sdf_string function

 28 31  0  0  0  0  0  0  0  0999 V2000
   -1.0354  -13.1058   18.9405 C   0  0  0  0  0  0  0  0  0  0  0  0
    3.1460   -8.4651   28.4517 C   0  0  0  0  0  0  0  0  0  0  0  0
    0.4743   -7.1460   27.8986 C   0  0  0  0  0  0  0  0  0  0  0  0
    0.3648   -4.9980   26.8196 C   0  0  0  0  0  0  0  0  0  0  0  0
    2.3625   -9.9915   29.9689 C   0  0  0  0  0  0  0  0  0  0  0  0
    1.8259   -6.7491   27.5153 N   0  0  0  0  0  0  0  0  0  0  0  0
   -0.1766  -12.1690   18.3736 C   0  0  0  0  0  0  0  0  0  0  0  0
   -1.9937  -10.6635   18.1169 C   0  0  0  0  0  0  0  0  0  0  0  0
    5.2315   -7.5198   27.0151 C   0  0  0  0  0  0  0  0  0  0  0  0
    1.6508  -10.1020   17.2075 C   0  0  0  0  0  0  0  0  0  0  0  0
    1.9598   -8.0247   16.0899 C   0  0  0  0  0  0  0  0  0  0  0  0
    2.4704   -9.1694   16.5951 C   0  0  0  0  0  0  0  0  0  0  0  0
   -0.2238   -8.7119   16.7949 C   0  0  0  0  0  0  0  0  0  0  0  0
    4.0441   -6.9757   26.8654 N   0  0  0  0  0  0  0  0  0  0  0  0
   -2.8445  -11.5919   18.7482 C   0  0  0  0  0  0  0  0  0  0  0  0
    4.6756  -10.0890   29.4985 C   0  0  0  0  0  0  0  0  0  0  0  0
    2.1352   -8.9781   29.1436 N   0  0  0  0  0  0  0  0  0  0  0  0
    3.5702  -10.5533   30.1668 N   0  0  0  0  0  0  0  0  0  0  0  0
   -0.4447   -6.0092   27.5705 C   0  0  0  0  0  0  0  0  0  0  0  0
    2.9963   -7.3798   27.5782 C   0  0  0  0  0  0  0  0  0  0  0  0
    5.4608   -8.5097   27.8687 N   0  0  0  0  0  0  0  0  0  0  0  0
   -2.3663  -12.8261   19.1747 C   0  0  0  0  0  0  0  0  0  0  0  0
    0.6143   -7.7740   16.1838 C   0  0  0  0  0  0  0  0  0  0  0  0
   -0.6091  -10.9095   17.9246 C   0  0  0  0  0  0  0  0  0  0  0  0
    5.7661  -10.5591   29.7176 O   0  0  0  0  0  0  0  0  0  0  0  0
    1.7225   -5.5307   26.7116 C   0  0  0  0  0  0  0  0  0  0  0  0
    0.2666   -9.9170   17.3162 C   0  0  0  0  0  0  0  0  0  0  0  0
    4.4080   -9.0043   28.5912 C   0  0  0  0  0  0  0  0  0  0  0  0
  1  7  4  0
  1 22  4  0
  2 17  4  0
  2 20  4  0
  2 28  4  0
  3  6  1  0
  3 19  1  0
  4 19  1  0
  4 26  1  0
  5 17  4  0
  5 18  4  0
  6 20  1  0
  6 26  1  0
  7 24  4  0
  8 15  4  0
  8 24  4  0
  9 14  4  0
  9 21  4  0
 10 12  4  0
 10 27  4  0
 11 12  4  0
 11 23  4  0
 13 23  4  0
 13 27  4  0
 14 20  4  0
 15 22  4  0
 16 18  4  0
 16 25  2  0
 16 28  4  0
 21 28  4  0
 24 27  1  0
M  END
$$$$

 Created by Python create_sdf_string function

 28 40  0  0  0  0  0  0  0  0999 V2000
   -1.0153  -13.0495   18.8223 C   0  0  0  0  0  0  0  0  0  0  0  0
    3.2650   -8.5363   28.2980 C   0  0  0  0  0  0  0  0  0  0  0  0
    0.5048   -7.2121   27.8879 C   0  0  0  0  0  0  0  0  0  0  0  0
    0.4527   -5.1390   26.7827 C   0  0  0  0  0  0  0  0  0  0  0  0
    2.3053   -9.9456   29.9220 C   0  0  0  0  0  0  0  0  0  0  0  0
    1.8071   -6.6650   27.4446 N   0  0  0  0  0  0  0  0  0  0  0  0
   -0.1671  -12.0603   18.5224 C   0  0  0  0  0  0  0  0  0  0  0  0
   -2.0736  -10.6647   18.0815 C   0  0  0  0  0  0  0  0  0  0  0  0
    5.1987   -7.4796   27.0434 C   0  0  0  0  0  0  0  0  0  0  0  0
    1.5829  -10.0262   17.2704 C   0  0  0  0  0  0  0  0  0  0  0  0
    1.9318   -7.9035   16.1008 C   0  0  0  0  0  0  0  0  0  0  0  0
    2.4434   -9.1710   16.5506 C   0  0  0  0  0  0  0  0  0  0  0  0
   -0.2429   -8.7711   16.7079 C   0  0  0  0  0  0  0  0  0  0  0  0
    3.9443   -6.9584   26.9213 N   0  0  0  0  0  0  0  0  0  0  0  0
   -2.8392  -11.6242   18.6792 C   0  0  0  0  0  0  0  0  0  0  0  0
    4.6514  -10.1376   29.4989 C   0  0  0  0  0  0  0  0  0  0  0  0
    2.0670   -8.9465   29.2037 N   0  0  0  0  0  0  0  0  0  0  0  0
    3.4608  -10.4842   30.2197 N   0  0  0  0  0  0  0  0  0  0  0  0
   -0.5052   -6.0045   27.5303 C   0  0  0  0  0  0  0  0  0  0  0  0
    2.9908   -7.3590   27.5800 C   0  0  0  0  0  0  0  0  0  0  0  0
    5.4344   -8.5430   27.8916 N   0  0  0  0  0  0  0  0  0  0  0  0
   -2.4204  -12.8557   19.2390 C   0  0  0  0  0  0  0  0  0  0  0  0
    0.5168   -7.7195   16.1943 C   0  0  0  0  0  0  0  0  0  0  0  0
   -0.6929  -10.8031   17.9813 C   0  0  0  0  0  0  0  0  0  0  0  0
    5.8496  -10.5225   29.6636 O   0  0  0  0  0  0  0  0  0  0  0  0
    1.8035   -5.5259   26.7435 C   0  0  0  0  0  0  0  0  0  0  0  0
    0.3661  -10.0575   17.2790 C   0  0  0  0  0  0  0  0  0  0  0  0
    4.4082   -9.0218   28.6198 C   0  0  0  0  0  0  0  0  0  0  0  0
  1  7  4  0
  1  9  3  0
  1 22  4  0
  1 25  4  0
  2 17  4  0
  2 20  4  0
  2 28  4  0
  3  6  1  0
  3 19  1  0
  4 19  1  0
  4 26  1  0
  5 13  2  0
  5 17  4  0
  5 18  4  0
  6  7  4  0
  6 20  1  0
  6 26  1  0
  7 20  3  0
  7 24  4  0
  8 15  4  0
  8 24  4  0
  9 14  4  0
  9 21  4  0
  9 27  4  0
 10 12  4  0
 10 27  4  0
 11 12  4  0
 11 23  4  0
 13 15  1  0
 13 23  4  0
 13 27  4  0
 14 20  4  0
 15 22  4  0
 16 18  4  0
 16 23  4  0
 16 25  2  0
 16 28  4  0
 17 20  4  0
 21 28  4  0
 24 27  1  0
M  END
$$$$

 Created by Python create_sdf_string function

 28 31  0  0  0  0  0  0  0  0999 V2000
   -1.0215  -13.0806   18.9583 C   0  0  0  0  0  0  0  0  0  0  0  0
    3.1444   -8.4725   28.4626 C   0  0  0  0  0  0  0  0  0  0  0  0
    0.5160   -7.1598   27.8796 C   0  0  0  0  0  0  0  0  0  0  0  0
    0.3921   -5.0546   26.7430 C   0  0  0  0  0  0  0  0  0  0  0  0
    2.3347   -9.9717   29.9624 C   0  0  0  0  0  0  0  0  0  0  0  0
    1.8345   -6.7542   27.4669 N   0  0  0  0  0  0  0  0  0  0  0  0
   -0.1731  -12.0886   18.4466 C   0  0  0  0  0  0  0  0  0  0  0  0
   -2.0616  -10.6605   18.0980 C   0  0  0  0  0  0  0  0  0  0  0  0
    5.2163   -7.5130   27.0443 C   0  0  0  0  0  0  0  0  0  0  0  0
    1.6464  -10.0525   17.2122 C   0  0  0  0  0  0  0  0  0  0  0  0
    1.9327   -7.9421   16.1031 C   0  0  0  0  0  0  0  0  0  0  0  0
    2.4650   -9.1255   16.5898 C   0  0  0  0  0  0  0  0  0  0  0  0
   -0.2625   -8.7379   16.7353 C   0  0  0  0  0  0  0  0  0  0  0  0
    4.0165   -6.9642   26.9235 N   0  0  0  0  0  0  0  0  0  0  0  0
   -2.8946  -11.6045   18.6983 C   0  0  0  0  0  0  0  0  0  0  0  0
    4.6321  -10.0912   29.5163 C   0  0  0  0  0  0  0  0  0  0  0  0
    2.1120   -8.9905   29.1416 N   0  0  0  0  0  0  0  0  0  0  0  0
    3.5081  -10.5029   30.1669 N   0  0  0  0  0  0  0  0  0  0  0  0
   -0.4493   -6.0150   27.5313 C   0  0  0  0  0  0  0  0  0  0  0  0
    2.9957   -7.3741   27.5791 C   0  0  0  0  0  0  0  0  0  0  0  0
    5.4393   -8.5253   27.8613 N   0  0  0  0  0  0  0  0  0  0  0  0
   -2.3908  -12.8415   19.1607 C   0  0  0  0  0  0  0  0  0  0  0  0
    0.5547   -7.7421   16.1728 C   0  0  0  0  0  0  0  0  0  0  0  0
   -0.6523  -10.8815   17.9538 C   0  0  0  0  0  0  0  0  0  0  0  0
    5.7513  -10.5470   29.6960 O   0  0  0  0  0  0  0  0  0  0  0  0
    1.7659   -5.5079   26.7362 C   0  0  0  0  0  0  0  0  0  0  0  0
    0.2357   -9.8920   17.3216 C   0  0  0  0  0  0  0  0  0  0  0  0
    4.3959   -9.0135   28.5823 C   0  0  0  0  0  0  0  0  0  0  0  0
  1  7  4  0
  1 22  4  0
  2 17  4  0
  2 20  4  0
  2 28  4  0
  3  6  1  0
  3 19  1  0
  4 19  1  0
  4 26  1  0
  5 17  4  0
  5 18  4  0
  6 20  1  0
  6 26  1  0
  7 24  4  0
  8 15  4  0
  8 24  4  0
  9 14  4  0
  9 21  4  0
 10 12  4  0
 10 27  4  0
 11 12  4  0
 11 23  4  0
 13 23  4  0
 13 27  4  0
 14 20  4  0
 15 22  4  0
 16 18  4  0
 16 25  2  0
 16 28  4  0
 21 28  4  0
 24 27  1  0
M  END
$$$$

 Created by Python create_sdf_string function

 28 38  0  0  0  0  0  0  0  0999 V2000
   -1.0114  -13.0546   18.9600 C   0  0  0  0  0  0  0  0  0  0  0  0
    3.1272   -8.3882   28.4864 C   0  0  0  0  0  0  0  0  0  0  0  0
    0.4898   -7.1429   27.8632 C   0  0  0  0  0  0  0  0  0  0  0  0
    0.3121   -4.9630   26.7343 C   0  0  0  0  0  0  0  0  0  0  0  0
    2.4099   -9.9856   29.9851 C   0  0  0  0  0  0  0  0  0  0  0  0
    1.7435   -6.6775   27.4388 N   0  0  0  0  0  0  0  0  0  0  0  0
   -0.1709  -12.0356   18.4263 C   0  0  0  0  0  0  0  0  0  0  0  0
   -2.0560  -10.5583   18.1048 C   0  0  0  0  0  0  0  0  0  0  0  0
    5.1130   -7.6243   27.0265 C   0  0  0  0  0  0  0  0  0  0  0  0
    1.6708  -10.0594   17.1874 C   0  0  0  0  0  0  0  0  0  0  0  0
    1.9821   -7.9682   16.1359 C   0  0  0  0  0  0  0  0  0  0  0  0
    2.3641   -9.0845   16.5827 C   0  0  0  0  0  0  0  0  0  0  0  0
   -0.2508   -8.7293   16.7628 C   0  0  0  0  0  0  0  0  0  0  0  0
    4.0994   -6.8292   26.9603 N   0  0  0  0  0  0  0  0  0  0  0  0
   -2.9020  -11.5662   18.6093 C   0  0  0  0  0  0  0  0  0  0  0  0
    4.6789  -10.1318   29.5822 C   0  0  0  0  0  0  0  0  0  0  0  0
    2.0639   -9.0177   29.1443 N   0  0  0  0  0  0  0  0  0  0  0  0
    3.5281  -10.4586   30.0784 N   0  0  0  0  0  0  0  0  0  0  0  0
   -0.4945   -6.0589   27.6467 C   0  0  0  0  0  0  0  0  0  0  0  0
    2.9412   -7.3257   27.5513 C   0  0  0  0  0  0  0  0  0  0  0  0
    5.4091   -8.5191   27.8225 N   0  0  0  0  0  0  0  0  0  0  0  0
   -2.3703  -12.8053   19.2092 C   0  0  0  0  0  0  0  0  0  0  0  0
    0.4259   -7.7162   16.1422 C   0  0  0  0  0  0  0  0  0  0  0  0
   -0.7382  -10.9118   17.9381 C   0  0  0  0  0  0  0  0  0  0  0  0
    5.8171  -10.5543   29.6307 O   0  0  0  0  0  0  0  0  0  0  0  0
    1.7535   -5.4621   26.6970 C   0  0  0  0  0  0  0  0  0  0  0  0
    0.2209   -9.9269   17.3228 C   0  0  0  0  0  0  0  0  0  0  0  0
    4.4111   -9.0477   28.5025 C   0  0  0  0  0  0  0  0  0  0  0  0
  1  4  4  0
  1  7  4  0
  1 22  1  0
  2 17  4  0
  2 20  4  0
  2 28  4  0
  3  6  1  0
  3 10  3  0
  3 15  1  0
  3 19  1  0
  4 19  1  0
  4 26  1  0
  5 17  4  0
  5 18  4  0
  5 20  1  0
  6  7  4  0
  6 20  1  0
  6 26  1  0
  7 24  4  0
  7 28  1  0
  8 15  4  0
  8 24  4  0
  9 14  4  0
  9 21  4  0
 10 12  4  0
 10 27  4  0
 11 12  4  0
 11 23  4  0
 13 23  4  0
 13 27  4  0
 14 20  4  0
 15 22  4  0
 16 18  4  0
 16 25  2  0
 16 28  4  0
 21 26  4  0
 21 28  4  0
 24 27  1  0
M  END
$$$$

 Created by Python create_sdf_string function

 28 31  0  0  0  0  0  0  0  0999 V2000
   -1.0283  -13.0577   19.0009 C   0  0  0  0  0  0  0  0  0  0  0  0
    3.1129   -8.4531   28.4569 C   0  0  0  0  0  0  0  0  0  0  0  0
    0.5116   -7.1296   27.8638 C   0  0  0  0  0  0  0  0  0  0  0  0
    0.3040   -4.9922   26.7501 C   0  0  0  0  0  0  0  0  0  0  0  0
    2.3591   -9.9828   29.9823 C   0  0  0  0  0  0  0  0  0  0  0  0
    1.8141   -6.7118   27.4489 N   0  0  0  0  0  0  0  0  0  0  0  0
   -0.1850  -12.0880   18.4234 C   0  0  0  0  0  0  0  0  0  0  0  0
   -2.0592  -10.6140   18.0851 C   0  0  0  0  0  0  0  0  0  0  0  0
    5.1776   -7.5462   27.0148 C   0  0  0  0  0  0  0  0  0  0  0  0
    1.6294  -10.0568   17.1958 C   0  0  0  0  0  0  0  0  0  0  0  0
    1.8881   -7.9304   16.1046 C   0  0  0  0  0  0  0  0  0  0  0  0
    2.4278   -9.0976   16.6023 C   0  0  0  0  0  0  0  0  0  0  0  0
   -0.2899   -8.6986   16.7632 C   0  0  0  0  0  0  0  0  0  0  0  0
    4.0272   -6.9135   26.9458 N   0  0  0  0  0  0  0  0  0  0  0  0
   -2.9146  -11.5856   18.6605 C   0  0  0  0  0  0  0  0  0  0  0  0
    4.6327  -10.0830   29.4894 C   0  0  0  0  0  0  0  0  0  0  0  0
    2.0918   -8.9834   29.1638 N   0  0  0  0  0  0  0  0  0  0  0  0
    3.5466  -10.4995   30.1414 N   0  0  0  0  0  0  0  0  0  0  0  0
   -0.4629   -6.0114   27.6091 C   0  0  0  0  0  0  0  0  0  0  0  0
    2.9736   -7.3357   27.5991 C   0  0  0  0  0  0  0  0  0  0  0  0
    5.4190   -8.5616   27.8196 N   0  0  0  0  0  0  0  0  0  0  0  0
   -2.3843  -12.8037   19.1734 C   0  0  0  0  0  0  0  0  0  0  0  0
    0.5002   -7.7240   16.1557 C   0  0  0  0  0  0  0  0  0  0  0  0
   -0.6756  -10.8741   17.9491 C   0  0  0  0  0  0  0  0  0  0  0  0
    5.7581  -10.5365   29.6445 O   0  0  0  0  0  0  0  0  0  0  0  0
    1.7039   -5.4700   26.7076 C   0  0  0  0  0  0  0  0  0  0  0  0
    0.2228   -9.8828   17.3077 C   0  0  0  0  0  0  0  0  0  0  0  0
    4.3762   -8.9886   28.5710 C   0  0  0  0  0  0  0  0  0  0  0  0
  1  7  4  0
  1 22  4  0
  2 17  4  0
  2 20  4  0
  2 28  4  0
  3  6  1  0
  3 19  1  0
  4 19  1  0
  4 26  1  0
  5 17  4  0
  5 18  4  0
  6 20  1  0
  6 26  1  0
  7 24  4  0
  8 15  4  0
  8 24  4  0
  9 14  4  0
  9 21  4  0
 10 12  4  0
 10 27  4  0
 11 12  4  0
 11 23  4  0
 13 23  4  0
 13 27  4  0
 14 20  4  0
 15 22  4  0
 16 18  4  0
 16 25  2  0
 16 28  4  0
 21 28  4  0
 24 27  1  0
M  END
$$$$

 Created by Python create_sdf_string function

 28 31  0  0  0  0  0  0  0  0999 V2000
   -0.9520  -13.0014   19.0732 C   0  0  0  0  0  0  0  0  0  0  0  0
    3.1774   -8.4512   28.5264 C   0  0  0  0  0  0  0  0  0  0  0  0
    0.5508   -7.2041   27.8928 C   0  0  0  0  0  0  0  0  0  0  0  0
    0.2557   -5.0032   26.6874 C   0  0  0  0  0  0  0  0  0  0  0  0
    2.4234   -9.9830   30.0557 C   0  0  0  0  0  0  0  0  0  0  0  0
    1.8454   -6.7229   27.4735 N   0  0  0  0  0  0  0  0  0  0  0  0
   -0.1029  -12.1719   18.4640 C   0  0  0  0  0  0  0  0  0  0  0  0
   -1.9604  -10.5641   18.0643 C   0  0  0  0  0  0  0  0  0  0  0  0
    5.1827   -7.5920   27.0608 C   0  0  0  0  0  0  0  0  0  0  0  0
    1.4699   -9.9693   17.2421 C   0  0  0  0  0  0  0  0  0  0  0  0
    1.8996   -7.9168   16.1844 C   0  0  0  0  0  0  0  0  0  0  0  0
    2.4899   -9.1343   16.5786 C   0  0  0  0  0  0  0  0  0  0  0  0
   -0.2655   -8.7428   16.7420 C   0  0  0  0  0  0  0  0  0  0  0  0
    4.0236   -6.9249   26.9615 N   0  0  0  0  0  0  0  0  0  0  0  0
    4.6806  -10.1127   29.5454 C   0  0  0  0  0  0  0  0  0  0  0  0
    2.0552   -9.0298   29.1957 N   0  0  0  0  0  0  0  0  0  0  0  0
   -0.4324   -6.0178   27.4939 C   0  0  0  0  0  0  0  0  0  0  0  0
    2.9776   -7.3330   27.5787 C   0  0  0  0  0  0  0  0  0  0  0  0
    5.4872   -8.5745   27.8439 N   0  0  0  0  0  0  0  0  0  0  0  0
   -2.4054  -12.8325   19.1839 C   0  0  0  0  0  0  0  0  0  0  0  0
    0.4974   -7.7039   16.1440 C   0  0  0  0  0  0  0  0  0  0  0  0
   -0.5920  -10.8462   17.9834 C   0  0  0  0  0  0  0  0  0  0  0  0
    5.8076  -10.5121   29.7080 O   0  0  0  0  0  0  0  0  0  0  0  0
    1.6364   -5.5219   26.7222 C   0  0  0  0  0  0  0  0  0  0  0  0
    0.2691   -9.8545   17.2656 C   0  0  0  0  0  0  0  0  0  0  0  0
    4.4701   -8.9554   28.5481 C   0  0  0  0  0  0  0  0  0  0  0  0
   -2.9551  -11.6065   18.6630 He  0  0  0  0  0  0  0  0  0  0  0  0
    3.5390  -10.4613   30.1531 He  0  0  0  0  0  0  0  0  0  0  0  0
  1  7  4  0
  1 20  4  0
  2 16  4  0
  2 18  4  0
  2 26  4  0
  3  6  1  0
  3 17  1  0
  4 17  1  0
  4 24  1  0
  4 26  2  0
  5 16  4  0
  6 18  1  0
  6 24  1  0
  7 22  4  0
  8 13  2  0
  8 22  4  0
  9 14  4  0
  9 19  4  0
 10 12  4  0
 10 25  4  0
 11 12  4  0
 11 21  4  0
 13 21  4  0
 13 25  4  0
 14 18  4  0
 14 26  3  0
 15 23  2  0
 15 26  4  0
 18 21  3  0
 19 26  4  0
 22 25  1  0
M  END
$$$$

 Created by Python create_sdf_string function

 28 31  0  0  0  0  0  0  0  0999 V2000
   -0.9874  -13.0538   19.0704 C   0  0  0  0  0  0  0  0  0  0  0  0
    3.1473   -8.4748   28.4985 C   0  0  0  0  0  0  0  0  0  0  0  0
    0.5388   -7.1540   27.8831 C   0  0  0  0  0  0  0  0  0  0  0  0
    0.2868   -5.0328   26.6937 C   0  0  0  0  0  0  0  0  0  0  0  0
    2.3745   -9.9937   30.0521 C   0  0  0  0  0  0  0  0  0  0  0  0
    1.8384   -6.7110   27.4598 N   0  0  0  0  0  0  0  0  0  0  0  0
   -0.1326  -12.0989   18.4700 C   0  0  0  0  0  0  0  0  0  0  0  0
   -2.0066  -10.6346   18.0845 C   0  0  0  0  0  0  0  0  0  0  0  0
    5.2071   -7.5525   27.0389 C   0  0  0  0  0  0  0  0  0  0  0  0
    1.6311  -10.0266   17.2151 C   0  0  0  0  0  0  0  0  0  0  0  0
    1.9075   -7.9177   16.1421 C   0  0  0  0  0  0  0  0  0  0  0  0
    2.4617   -9.0803   16.6094 C   0  0  0  0  0  0  0  0  0  0  0  0
   -0.2779   -8.6874   16.7429 C   0  0  0  0  0  0  0  0  0  0  0  0
    4.0369   -6.9654   26.9590 N   0  0  0  0  0  0  0  0  0  0  0  0
   -2.8707  -11.6039   18.6746 C   0  0  0  0  0  0  0  0  0  0  0  0
    4.6737  -10.0782   29.5388 C   0  0  0  0  0  0  0  0  0  0  0  0
    2.1308   -8.9877   29.2111 N   0  0  0  0  0  0  0  0  0  0  0  0
    3.5835  -10.5191   30.2133 N   0  0  0  0  0  0  0  0  0  0  0  0
   -0.4400   -6.0545   27.5199 C   0  0  0  0  0  0  0  0  0  0  0  0
    2.9969   -7.3555   27.6177 C   0  0  0  0  0  0  0  0  0  0  0  0
    5.4606   -8.5570   27.8607 N   0  0  0  0  0  0  0  0  0  0  0  0
   -2.3697  -12.8220   19.1828 C   0  0  0  0  0  0  0  0  0  0  0  0
    0.5500   -7.7200   16.1611 C   0  0  0  0  0  0  0  0  0  0  0  0
   -0.6227  -10.8711   17.9549 C   0  0  0  0  0  0  0  0  0  0  0  0
    5.7664  -10.5189   29.7054 O   0  0  0  0  0  0  0  0  0  0  0  0
    1.6878   -5.5138   26.7022 C   0  0  0  0  0  0  0  0  0  0  0  0
    0.2495   -9.8589   17.3143 C   0  0  0  0  0  0  0  0  0  0  0  0
    4.4064   -9.0093   28.6125 C   0  0  0  0  0  0  0  0  0  0  0  0
  1  7  4  0
  1 22  4  0
  2 17  4  0
  2 20  4  0
  2 28  4  0
  3  6  1  0
  3 19  1  0
  4 19  1  0
  4 26  1  0
  5 17  4  0
  5 18  4  0
  6 20  1  0
  6 26  1  0
  7 24  4  0
  8 15  4  0
  8 24  4  0
  9 14  4  0
  9 21  4  0
 10 12  4  0
 10 27  4  0
 11 12  4  0
 11 23  4  0
 13 23  4  0
 13 27  4  0
 14 20  4  0
 15 22  4  0
 16 18  4  0
 16 25  2  0
 16 28  4  0
 21 28  4  0
 24 27  1  0
M  END
$$$$

 Created by Python create_sdf_string function

 28 35  0  0  0  0  0  0  0  0999 V2000
   -0.9723  -13.0566   19.0980 C   0  0  0  0  0  0  0  0  0  0  0  0
    3.2554   -8.4825   28.5076 C   0  0  0  0  0  0  0  0  0  0  0  0
    0.4800   -7.1690   27.8470 C   0  0  0  0  0  0  0  0  0  0  0  0
    0.2132   -5.0988   26.6524 C   0  0  0  0  0  0  0  0  0  0  0  0
    2.3753  -10.0798   30.0194 C   0  0  0  0  0  0  0  0  0  0  0  0
    1.7647   -6.7015   27.4713 N   0  0  0  0  0  0  0  0  0  0  0  0
   -0.1606  -12.1042   18.4412 C   0  0  0  0  0  0  0  0  0  0  0  0
   -2.0318  -10.5644   18.1006 C   0  0  0  0  0  0  0  0  0  0  0  0
    5.2078   -7.6226   27.0223 C   0  0  0  0  0  0  0  0  0  0  0  0
    1.6089   -9.9847   17.2260 C   0  0  0  0  0  0  0  0  0  0  0  0
    1.9317   -7.9102   16.1825 C   0  0  0  0  0  0  0  0  0  0  0  0
    2.3691   -9.1073   16.5455 C   0  0  0  0  0  0  0  0  0  0  0  0
   -0.2293   -8.6185   16.7941 C   0  0  0  0  0  0  0  0  0  0  0  0
    3.9833   -7.0096   27.0748 N   0  0  0  0  0  0  0  0  0  0  0  0
   -2.8625  -11.5716   18.5631 C   0  0  0  0  0  0  0  0  0  0  0  0
    4.7192  -10.0344   29.5451 C   0  0  0  0  0  0  0  0  0  0  0  0
    2.0685   -8.9919   29.2652 N   0  0  0  0  0  0  0  0  0  0  0  0
    3.6300  -10.5835   30.2554 N   0  0  0  0  0  0  0  0  0  0  0  0
   -0.4541   -6.0368   27.6069 C   0  0  0  0  0  0  0  0  0  0  0  0
    2.9876   -7.3208   27.6065 C   0  0  0  0  0  0  0  0  0  0  0  0
    5.4298   -8.5452   27.8581 N   0  0  0  0  0  0  0  0  0  0  0  0
   -2.3325  -12.8086   19.2725 C   0  0  0  0  0  0  0  0  0  0  0  0
    0.4450   -7.6559   16.1669 C   0  0  0  0  0  0  0  0  0  0  0  0
   -0.6271  -10.7875   17.9242 C   0  0  0  0  0  0  0  0  0  0  0  0
    5.7481  -10.5301   29.7050 O   0  0  0  0  0  0  0  0  0  0  0  0
    1.6075   -5.5084   26.7338 C   0  0  0  0  0  0  0  0  0  0  0  0
    0.2734   -9.8598   17.2787 C   0  0  0  0  0  0  0  0  0  0  0  0
    4.3803   -8.9771   28.5876 C   0  0  0  0  0  0  0  0  0  0  0  0
  1  7  3  0
  1 22  4  0
  2 17  4  0
  2 20  4  0
  2 23  3  0
  2 28  4  0
  3  6  1  0
  3 19  1  0
  4 19  1  0
  4 26  1  0
  5 17  4  0
  5 18  4  0
  6 20  1  0
  6 26  1  0
  7 24  4  0
  8 15  4  0
  8 22  3  0
  8 24  3  0
  9 14  4  0
  9 21  4  0
 10 11  4  0
 10 12  4  0
 10 27  4  0
 11 12  4  0
 11 23  4  0
 13 23  4  0
 13 27  4  0
 14 20  4  0
 15 22  4  0
 16 18  4  0
 16 25  2  0
 16 28  4  0
 19 27  1  0
 21 28  4  0
 24 27  1  0
M  END
$$$$

 Created by Python create_sdf_string function

 28 31  0  0  0  0  0  0  0  0999 V2000
   -0.9677  -13.0162   19.0711 C   0  0  0  0  0  0  0  0  0  0  0  0
    3.1418   -8.4895   28.5358 C   0  0  0  0  0  0  0  0  0  0  0  0
    0.4864   -7.1680   27.8636 C   0  0  0  0  0  0  0  0  0  0  0  0
    0.2269   -5.0975   26.6505 C   0  0  0  0  0  0  0  0  0  0  0  0
    2.3696  -10.0468   30.0416 C   0  0  0  0  0  0  0  0  0  0  0  0
    1.7838   -6.7152   27.4723 N   0  0  0  0  0  0  0  0  0  0  0  0
   -0.1645  -12.0521   18.4464 C   0  0  0  0  0  0  0  0  0  0  0  0
   -2.0359  -10.6201   18.0733 C   0  0  0  0  0  0  0  0  0  0  0  0
    5.1889   -7.5565   27.0250 C   0  0  0  0  0  0  0  0  0  0  0  0
    1.6184   -9.9948   17.1860 C   0  0  0  0  0  0  0  0  0  0  0  0
    1.8919   -7.9036   16.1354 C   0  0  0  0  0  0  0  0  0  0  0  0
    2.4212   -9.0680   16.5781 C   0  0  0  0  0  0  0  0  0  0  0  0
   -0.2754   -8.6219   16.7940 C   0  0  0  0  0  0  0  0  0  0  0  0
    4.0067   -6.9848   26.9885 N   0  0  0  0  0  0  0  0  0  0  0  0
   -2.8810  -11.5864   18.6408 C   0  0  0  0  0  0  0  0  0  0  0  0
    4.6682  -10.0808   29.5477 C   0  0  0  0  0  0  0  0  0  0  0  0
    2.1179   -9.0086   29.2400 N   0  0  0  0  0  0  0  0  0  0  0  0
    3.5746  -10.5388   30.2202 N   0  0  0  0  0  0  0  0  0  0  0  0
   -0.4565   -6.0411   27.5995 C   0  0  0  0  0  0  0  0  0  0  0  0
    2.9620   -7.3588   27.6415 C   0  0  0  0  0  0  0  0  0  0  0  0
    5.4490   -8.5564   27.8575 N   0  0  0  0  0  0  0  0  0  0  0  0
   -2.3542  -12.7753   19.2089 C   0  0  0  0  0  0  0  0  0  0  0  0
    0.5259   -7.6504   16.1835 C   0  0  0  0  0  0  0  0  0  0  0  0
   -0.6352  -10.8293   17.9449 C   0  0  0  0  0  0  0  0  0  0  0  0
    5.7640  -10.5216   29.7192 O   0  0  0  0  0  0  0  0  0  0  0  0
    1.6462   -5.5103   26.7208 C   0  0  0  0  0  0  0  0  0  0  0  0
    0.2436   -9.8090   17.3137 C   0  0  0  0  0  0  0  0  0  0  0  0
    4.4041   -9.0040   28.6235 C   0  0  0  0  0  0  0  0  0  0  0  0
  1  7  4  0
  1 22  4  0
  2 17  4  0
  2 20  4  0
  2 28  4  0
  3  6  1  0
  3 19  1  0
  4 19  1  0
  4 26  1  0
  5 17  4  0
  5 18  4  0
  6 20  1  0
  6 26  1  0
  7 24  4  0
  8 15  4  0
  8 24  4  0
  9 14  4  0
  9 21  4  0
 10 12  4  0
 10 27  4  0
 11 12  4  0
 11 23  4  0
 13 23  4  0
 13 27  4  0
 14 20  4  0
 15 22  4  0
 16 18  4  0
 16 25  2  0
 16 28  4  0
 21 28  4  0
 24 27  1  0
M  END
$$$$

 Created by Python create_sdf_string function

 28 40  0  0  0  0  0  0  0  0999 V2000
   -0.9764  -13.0387   19.0610 C   0  0  0  0  0  0  0  0  0  0  0  0
    3.1592   -8.5057   28.5404 C   0  0  0  0  0  0  0  0  0  0  0  0
    0.4580   -7.1596   27.8590 C   0  0  0  0  0  0  0  0  0  0  0  0
    0.2115   -5.0304   26.6886 C   0  0  0  0  0  0  0  0  0  0  0  0
    2.3113  -10.0325   30.0150 C   0  0  0  0  0  0  0  0  0  0  0  0
    1.8101   -6.7195   27.4933 N   0  0  0  0  0  0  0  0  0  0  0  0
   -0.1173  -11.9937   18.4601 C   0  0  0  0  0  0  0  0  0  0  0  0
   -1.9613  -10.6312   18.1064 C   0  0  0  0  0  0  0  0  0  0  0  0
    5.1697   -7.6016   27.0545 C   0  0  0  0  0  0  0  0  0  0  0  0
    1.6610  -10.0201   17.1946 C   0  0  0  0  0  0  0  0  0  0  0  0
    1.8721   -7.9011   16.1588 C   0  0  0  0  0  0  0  0  0  0  0  0
    2.3706   -9.0671   16.6189 C   0  0  0  0  0  0  0  0  0  0  0  0
   -0.2395   -8.6058   16.8060 C   0  0  0  0  0  0  0  0  0  0  0  0
    4.0786   -7.0200   26.9833 N   0  0  0  0  0  0  0  0  0  0  0  0
   -2.9016  -11.5831   18.6598 C   0  0  0  0  0  0  0  0  0  0  0  0
    4.6052  -10.1512   29.5760 C   0  0  0  0  0  0  0  0  0  0  0  0
    2.1390   -8.9852   29.2121 N   0  0  0  0  0  0  0  0  0  0  0  0
    3.5328  -10.5956   30.1967 N   0  0  0  0  0  0  0  0  0  0  0  0
   -0.3711   -5.9854   27.5584 C   0  0  0  0  0  0  0  0  0  0  0  0
    2.9216   -7.3737   27.6145 C   0  0  0  0  0  0  0  0  0  0  0  0
    5.4682   -8.5748   27.8811 N   0  0  0  0  0  0  0  0  0  0  0  0
   -2.3849  -12.7309   19.1863 C   0  0  0  0  0  0  0  0  0  0  0  0
    0.5182   -7.6807   16.1367 C   0  0  0  0  0  0  0  0  0  0  0  0
   -0.6199  -10.7576   17.9686 C   0  0  0  0  0  0  0  0  0  0  0  0
    5.7597  -10.5233   29.7337 O   0  0  0  0  0  0  0  0  0  0  0  0
    1.6209   -5.5483   26.8144 C   0  0  0  0  0  0  0  0  0  0  0  0
    0.2174   -9.7937   17.2588 C   0  0  0  0  0  0  0  0  0  0  0  0
    4.4209   -8.9842   28.6047 C   0  0  0  0  0  0  0  0  0  0  0  0
  1  7  4  0
  1 22  4  0
  2 17  4  0
  2 20  4  0
  2 28  4  0
  3  6  1  0
  3 19  1  0
  4  7  2  0
  4 19  1  0
  4 26  1  0
  5 17  4  0
  5 18  4  0
  6 11  1  0
  6 20  1  0
  6 26  1  0
  7 21  1  0
  7 24  4  0
  8 12  3  0
  8 15  4  0
  8 24  4  0
  9 14  4  0
  9 21  4  0
 10 12  4  0
 10 27  4  0
 11 12  4  0
 11 23  3  0
 13 23  4  0
 13 27  4  0
 14 15  4  0
 14 20  4  0
 14 21  2  0
 15 22  4  0
 16 18  4  0
 16 25  2  0
 16 28  4  0
 19 21  4  0
 21 28  4  0
 23 24  3  0
 23 25  2  0
 24 27  1  0
M  END
$$$$

 Created by Python create_sdf_string function

 28 31  0  0  0  0  0  0  0  0999 V2000
   -0.9763  -13.0188   19.0640 C   0  0  0  0  0  0  0  0  0  0  0  0
    3.1205   -8.4979   28.5254 C   0  0  0  0  0  0  0  0  0  0  0  0
    0.4791   -7.1554   27.8735 C   0  0  0  0  0  0  0  0  0  0  0  0
    0.2674   -5.0496   26.6896 C   0  0  0  0  0  0  0  0  0  0  0  0
    2.3200  -10.0309   30.0275 C   0  0  0  0  0  0  0  0  0  0  0  0
    1.8097   -6.7292   27.4828 N   0  0  0  0  0  0  0  0  0  0  0  0
   -0.1468  -12.0330   18.4791 C   0  0  0  0  0  0  0  0  0  0  0  0
   -2.0287  -10.6305   18.1044 C   0  0  0  0  0  0  0  0  0  0  0  0
    5.1980   -7.5789   27.0509 C   0  0  0  0  0  0  0  0  0  0  0  0
    1.6273  -10.0150   17.2036 C   0  0  0  0  0  0  0  0  0  0  0  0
    1.8718   -7.8978   16.1280 C   0  0  0  0  0  0  0  0  0  0  0  0
    2.4168   -9.0472   16.6108 C   0  0  0  0  0  0  0  0  0  0  0  0
   -0.2770   -8.6122   16.7901 C   0  0  0  0  0  0  0  0  0  0  0  0
    4.0061   -7.0171   26.9781 N   0  0  0  0  0  0  0  0  0  0  0  0
   -2.8947  -11.5751   18.6807 C   0  0  0  0  0  0  0  0  0  0  0  0
    4.6144  -10.1120   29.5600 C   0  0  0  0  0  0  0  0  0  0  0  0
    2.1021   -8.9946   29.2201 N   0  0  0  0  0  0  0  0  0  0  0  0
    3.5091  -10.5686   30.1955 N   0  0  0  0  0  0  0  0  0  0  0  0
   -0.4297   -6.0086   27.5861 C   0  0  0  0  0  0  0  0  0  0  0  0
    2.9767   -7.3961   27.6451 C   0  0  0  0  0  0  0  0  0  0  0  0
    5.4476   -8.5836   27.8984 N   0  0  0  0  0  0  0  0  0  0  0  0
   -2.3720  -12.7776   19.1921 C   0  0  0  0  0  0  0  0  0  0  0  0
    0.5319   -7.6811   16.1768 C   0  0  0  0  0  0  0  0  0  0  0  0
   -0.6413  -10.8226   17.9669 C   0  0  0  0  0  0  0  0  0  0  0  0
    5.7185  -10.5473   29.7468 O   0  0  0  0  0  0  0  0  0  0  0  0
    1.6784   -5.5045   26.7666 C   0  0  0  0  0  0  0  0  0  0  0  0
    0.2361   -9.8113   17.3241 C   0  0  0  0  0  0  0  0  0  0  0  0
    4.3775   -9.0288   28.6321 C   0  0  0  0  0  0  0  0  0  0  0  0
  1  7  4  0
  1 22  4  0
  2 17  4  0
  2 20  4  0
  2 28  4  0
  3  6  1  0
  3 19  1  0
  4 19  1  0
  4 26  1  0
  5 17  4  0
  5 18  4  0
  6 20  1  0
  6 26  1  0
  7 24  4  0
  8 15  4  0
  8 24  4  0
  9 14  4  0
  9 21  4  0
 10 12  4  0
 10 27  4  0
 11 12  4  0
 11 23  4  0
 13 23  4  0
 13 27  4  0
 14 20  4  0
 15 22  4  0
 16 18  4  0
 16 25  2  0
 16 28  4  0
 21 28  4  0
 24 27  1  0
M  END
$$$$

 Created by Python create_sdf_string function

 28 35  0  0  0  0  0  0  0  0999 V2000
   -1.0110  -13.0477   19.1023 C   0  0  0  0  0  0  0  0  0  0  0  0
    3.1403   -8.4957   28.5326 C   0  0  0  0  0  0  0  0  0  0  0  0
    0.5137   -7.1274   27.8811 C   0  0  0  0  0  0  0  0  0  0  0  0
    0.2612   -5.0879   26.6971 C   0  0  0  0  0  0  0  0  0  0  0  0
    2.3706   -9.9823   29.9845 C   0  0  0  0  0  0  0  0  0  0  0  0
    1.8224   -6.7178   27.5453 N   0  0  0  0  0  0  0  0  0  0  0  0
   -0.2082  -12.0628   18.4959 C   0  0  0  0  0  0  0  0  0  0  0  0
   -2.0550  -10.6083   18.1017 C   0  0  0  0  0  0  0  0  0  0  0  0
    5.1587   -7.5007   27.1109 C   0  0  0  0  0  0  0  0  0  0  0  0
    1.6756  -10.0186   17.1903 C   0  0  0  0  0  0  0  0  0  0  0  0
    1.8570   -7.9247   16.0312 C   0  0  0  0  0  0  0  0  0  0  0  0
    2.4127   -9.0260   16.6175 C   0  0  0  0  0  0  0  0  0  0  0  0
   -0.2584   -8.5761   16.7795 C   0  0  0  0  0  0  0  0  0  0  0  0
    4.0294   -7.0045   26.9777 N   0  0  0  0  0  0  0  0  0  0  0  0
   -2.9475  -11.5803   18.7408 C   0  0  0  0  0  0  0  0  0  0  0  0
    4.5520  -10.1192   29.5729 C   0  0  0  0  0  0  0  0  0  0  0  0
    2.1190   -9.0956   29.1783 N   0  0  0  0  0  0  0  0  0  0  0  0
    3.5340  -10.6035   30.2373 N   0  0  0  0  0  0  0  0  0  0  0  0
   -0.4430   -6.0335   27.5668 C   0  0  0  0  0  0  0  0  0  0  0  0
    2.9903   -7.4586   27.6280 C   0  0  0  0  0  0  0  0  0  0  0  0
    5.3928   -8.5715   27.8819 N   0  0  0  0  0  0  0  0  0  0  0  0
   -2.3694  -12.7387   19.2046 C   0  0  0  0  0  0  0  0  0  0  0  0
   -0.5862  -10.7953   17.9635 C   0  0  0  0  0  0  0  0  0  0  0  0
    5.7015  -10.5401   29.7068 O   0  0  0  0  0  0  0  0  0  0  0  0
    1.6883   -5.5056   26.6898 C   0  0  0  0  0  0  0  0  0  0  0  0
    0.1717   -9.8076   17.3026 C   0  0  0  0  0  0  0  0  0  0  0  0
    4.3650   -9.0365   28.6554 C   0  0  0  0  0  0  0  0  0  0  0  0
    0.5659   -7.6425   16.1424 He  0  0  0  0  0  0  0  0  0  0  0  0
  1  7  4  0
  1 22  4  0
  2 17  4  0
  2 20  4  0
  2 27  4  0
  3  5  3  0
  3  6  1  0
  3 19  1  0
  4 19  1  0
  4 24  4  0
  4 25  1  0
  5 11  4  0
  5 17  4  0
  5 18  4  0
  6 20  1  0
  6 25  1  0
  7 23  4  0
  8 15  4  0
  8 23  4  0
  9 14  4  0
  9 21  4  0
 10 12  4  0
 10 26  4  0
 11 12  4  0
 11 17  1  0
 12 25  1  0
 13 26  4  0
 14 20  4  0
 15 19  1  0
 15 22  4  0
 16 18  4  0
 16 24  2  0
 16 27  4  0
 21 27  4  0
 23 26  1  0
M  END
$$$$

 Created by Python create_sdf_string function

 28 31  0  0  0  0  0  0  0  0999 V2000
   -1.0113  -13.0295   19.0941 C   0  0  0  0  0  0  0  0  0  0  0  0
    3.1219   -8.5079   28.5039 C   0  0  0  0  0  0  0  0  0  0  0  0
    0.5170   -7.1398   27.9009 C   0  0  0  0  0  0  0  0  0  0  0  0
    0.2916   -5.0775   26.6844 C   0  0  0  0  0  0  0  0  0  0  0  0
    2.3509  -10.0279   30.0162 C   0  0  0  0  0  0  0  0  0  0  0  0
    1.8289   -6.7295   27.5121 N   0  0  0  0  0  0  0  0  0  0  0  0
   -0.1934  -12.0660   18.4993 C   0  0  0  0  0  0  0  0  0  0  0  0
   -2.0561  -10.6236   18.1155 C   0  0  0  0  0  0  0  0  0  0  0  0
    5.1945   -7.5407   27.1028 C   0  0  0  0  0  0  0  0  0  0  0  0
    1.6297  -10.0150   17.2116 C   0  0  0  0  0  0  0  0  0  0  0  0
    1.8878   -7.9170   16.0542 C   0  0  0  0  0  0  0  0  0  0  0  0
    2.4414   -9.0475   16.6021 C   0  0  0  0  0  0  0  0  0  0  0  0
   -0.2509   -8.5828   16.7784 C   0  0  0  0  0  0  0  0  0  0  0  0
    3.9985   -6.9933   26.9949 N   0  0  0  0  0  0  0  0  0  0  0  0
   -2.9256  -11.5664   18.7296 C   0  0  0  0  0  0  0  0  0  0  0  0
    4.5971  -10.1122   29.5583 C   0  0  0  0  0  0  0  0  0  0  0  0
    2.1035   -9.0373   29.1886 N   0  0  0  0  0  0  0  0  0  0  0  0
    3.5133  -10.5625   30.2182 N   0  0  0  0  0  0  0  0  0  0  0  0
   -0.4267   -6.0497   27.5722 C   0  0  0  0  0  0  0  0  0  0  0  0
    2.9822   -7.4030   27.6478 C   0  0  0  0  0  0  0  0  0  0  0  0
    5.4077   -8.5612   27.9178 N   0  0  0  0  0  0  0  0  0  0  0  0
   -2.3888  -12.7723   19.2244 C   0  0  0  0  0  0  0  0  0  0  0  0
    0.5555   -7.6688   16.1585 C   0  0  0  0  0  0  0  0  0  0  0  0
   -0.6559  -10.8268   17.9735 C   0  0  0  0  0  0  0  0  0  0  0  0
    5.6954  -10.5627   29.7292 O   0  0  0  0  0  0  0  0  0  0  0  0
    1.6988   -5.5293   26.6983 C   0  0  0  0  0  0  0  0  0  0  0  0
    0.2305   -9.8110   17.3248 C   0  0  0  0  0  0  0  0  0  0  0  0
    4.3717   -9.0386   28.6393 C   0  0  0  0  0  0  0  0  0  0  0  0
  1  7  4  0
  1 22  4  0
  2 17  4  0
  2 20  4  0
  2 28  4  0
  3  6  1  0
  3 19  1  0
  4 19  1  0
  4 26  1  0
  5 17  4  0
  5 18  4  0
  6 20  1  0
  6 26  1  0
  7 24  4  0
  8 15  4  0
  8 24  4  0
  9 14  4  0
  9 21  4  0
 10 12  4  0
 10 27  4  0
 11 12  4  0
 11 23  4  0
 13 23  4  0
 13 27  4  0
 14 20  4  0
 15 22  4  0
 16 18  4  0
 16 25  2  0
 16 28  4  0
 21 28  4  0
 24 27  1  0
M  END
$$$$

 Created by Python create_sdf_string function

 28 33  0  0  0  0  0  0  0  0999 V2000
   -0.9797  -12.9971   19.0931 C   0  0  0  0  0  0  0  0  0  0  0  0
    3.0686   -8.5019   28.5306 C   0  0  0  0  0  0  0  0  0  0  0  0
    0.5026   -7.1809   27.9361 C   0  0  0  0  0  0  0  0  0  0  0  0
    0.2692   -5.0980   26.6872 C   0  0  0  0  0  0  0  0  0  0  0  0
    2.3578  -10.0723   29.9815 C   0  0  0  0  0  0  0  0  0  0  0  0
    1.8384   -6.7758   27.4763 N   0  0  0  0  0  0  0  0  0  0  0  0
   -0.1974  -12.0863   18.4712 C   0  0  0  0  0  0  0  0  0  0  0  0
   -2.0910  -10.6262   18.1338 C   0  0  0  0  0  0  0  0  0  0  0  0
    5.1809   -7.5181   27.0914 C   0  0  0  0  0  0  0  0  0  0  0  0
    1.6220  -10.0567   17.2180 C   0  0  0  0  0  0  0  0  0  0  0  0
    1.9315   -7.9793   16.0703 C   0  0  0  0  0  0  0  0  0  0  0  0
    2.4023   -9.0443   16.6480 C   0  0  0  0  0  0  0  0  0  0  0  0
   -0.3023   -8.5851   16.7548 C   0  0  0  0  0  0  0  0  0  0  0  0
    4.0490   -7.0310   26.9884 N   0  0  0  0  0  0  0  0  0  0  0  0
   -2.8937  -11.6351   18.7229 C   0  0  0  0  0  0  0  0  0  0  0  0
    4.5513  -10.1657   29.5061 C   0  0  0  0  0  0  0  0  0  0  0  0
    2.0791   -9.0774   29.1598 N   0  0  0  0  0  0  0  0  0  0  0  0
    3.4705  -10.5589   30.2234 N   0  0  0  0  0  0  0  0  0  0  0  0
   -0.4296   -6.0611   27.5662 C   0  0  0  0  0  0  0  0  0  0  0  0
    3.0051   -7.3090   27.6886 C   0  0  0  0  0  0  0  0  0  0  0  0
    5.3988   -8.5614   27.9015 N   0  0  0  0  0  0  0  0  0  0  0  0
   -2.3694  -12.8003   19.1995 C   0  0  0  0  0  0  0  0  0  0  0  0
    0.5615   -7.6514   16.1626 C   0  0  0  0  0  0  0  0  0  0  0  0
   -0.5987  -10.8130   17.9932 C   0  0  0  0  0  0  0  0  0  0  0  0
    5.7467  -10.5867   29.7238 O   0  0  0  0  0  0  0  0  0  0  0  0
    1.7191   -5.5488   26.7253 C   0  0  0  0  0  0  0  0  0  0  0  0
    0.2077   -9.7996   17.3306 C   0  0  0  0  0  0  0  0  0  0  0  0
    4.3759   -9.0265   28.6709 C   0  0  0  0  0  0  0  0  0  0  0  0
  1  7  4  0
  1 22  4  0
  2 13  1  0
  2 17  4  0
  2 20  4  0
  2 28  4  0
  3  6  1  0
  3 19  1  0
  4 19  1  0
  4 26  1  0
  5 17  4  0
  5 18  4  0
  6 20  1  0
  6 26  1  0
  8 15  4  0
  8 24  4  0
  9 14  4  0
  9 21  4  0
 10 12  4  0
 10 16  1  0
 10 27  4  0
 11 12  4  0
 11 23  4  0
 13 23  4  0
 13 27  4  0
 14 20  4  0
 15 22  4  0
 16 18  4  0
 16 25  2  0
 16 28  4  0
 17 24  1  0
 21 28  4  0
 24 27  1  0
M  END
$$$$

 Created by Python create_sdf_string function

 28 31  0  0  0  0  0  0  0  0999 V2000
   -0.9940  -13.0297   19.0967 C   0  0  0  0  0  0  0  0  0  0  0  0
    3.1119   -8.5023   28.5199 C   0  0  0  0  0  0  0  0  0  0  0  0
    0.5222   -7.1607   27.9367 C   0  0  0  0  0  0  0  0  0  0  0  0
    0.3082   -5.1049   26.6812 C   0  0  0  0  0  0  0  0  0  0  0  0
    2.3235  -10.0702   29.9901 C   0  0  0  0  0  0  0  0  0  0  0  0
    1.8305   -6.7700   27.4870 N   0  0  0  0  0  0  0  0  0  0  0  0
   -0.2028  -12.0853   18.4962 C   0  0  0  0  0  0  0  0  0  0  0  0
   -2.0700  -10.6565   18.1430 C   0  0  0  0  0  0  0  0  0  0  0  0
    5.2190   -7.5427   27.1012 C   0  0  0  0  0  0  0  0  0  0  0  0
    1.6118  -10.0199   17.2265 C   0  0  0  0  0  0  0  0  0  0  0  0
    1.9078   -7.9478   16.0811 C   0  0  0  0  0  0  0  0  0  0  0  0
    2.4329   -9.0775   16.6454 C   0  0  0  0  0  0  0  0  0  0  0  0
   -0.2796   -8.5968   16.7740 C   0  0  0  0  0  0  0  0  0  0  0  0
    4.0252   -6.9908   27.0114 N   0  0  0  0  0  0  0  0  0  0  0  0
   -2.9122  -11.6159   18.7252 C   0  0  0  0  0  0  0  0  0  0  0  0
    4.5823  -10.1298   29.5464 C   0  0  0  0  0  0  0  0  0  0  0  0
    2.0803   -9.0517   29.1814 N   0  0  0  0  0  0  0  0  0  0  0  0
    3.4954  -10.5734   30.1925 N   0  0  0  0  0  0  0  0  0  0  0  0
   -0.4143   -6.0798   27.5664 C   0  0  0  0  0  0  0  0  0  0  0  0
    3.0014   -7.3817   27.6541 C   0  0  0  0  0  0  0  0  0  0  0  0
    5.4094   -8.5648   27.9259 N   0  0  0  0  0  0  0  0  0  0  0  0
   -2.3747  -12.8182   19.2155 C   0  0  0  0  0  0  0  0  0  0  0  0
    0.5500   -7.6644   16.1652 C   0  0  0  0  0  0  0  0  0  0  0  0
   -0.6683  -10.8417   17.9886 C   0  0  0  0  0  0  0  0  0  0  0  0
    5.7110  -10.5970   29.7187 O   0  0  0  0  0  0  0  0  0  0  0  0
    1.7136   -5.5588   26.7273 C   0  0  0  0  0  0  0  0  0  0  0  0
    0.2124   -9.8128   17.3332 C   0  0  0  0  0  0  0  0  0  0  0  0
    4.3676   -9.0413   28.6440 C   0  0  0  0  0  0  0  0  0  0  0  0
  1  7  4  0
  1 22  4  0
  2 17  4  0
  2 20  4  0
  2 28  4  0
  3  6  1  0
  3 19  1  0
  4 19  1  0
  4 26  1  0
  5 17  4  0
  5 18  4  0
  6 20  1  0
  6 26  1  0
  7 24  4  0
  8 15  4  0
  8 24  4  0
  9 14  4  0
  9 21  4  0
 10 12  4  0
 10 27  4  0
 11 12  4  0
 11 23  4  0
 13 23  4  0
 13 27  4  0
 14 20  4  0
 15 22  4  0
 16 18  4  0
 16 25  2  0
 16 28  4  0
 21 28  4  0
 24 27  1  0
M  END
$$$$

 Created by Python create_sdf_string function

 28 34  0  0  0  0  0  0  0  0999 V2000
   -1.0239  -12.9713   19.1347 C   0  0  0  0  0  0  0  0  0  0  0  0
    3.0889   -8.4987   28.5107 C   0  0  0  0  0  0  0  0  0  0  0  0
    0.5328   -7.1600   27.9626 C   0  0  0  0  0  0  0  0  0  0  0  0
    0.2728   -5.0585   26.6971 C   0  0  0  0  0  0  0  0  0  0  0  0
    2.3249  -10.0339   30.0011 C   0  0  0  0  0  0  0  0  0  0  0  0
    1.8365   -6.7837   27.4918 N   0  0  0  0  0  0  0  0  0  0  0  0
   -0.2304  -12.1008   18.4942 C   0  0  0  0  0  0  0  0  0  0  0  0
   -2.0203  -10.6298   18.1477 C   0  0  0  0  0  0  0  0  0  0  0  0
    5.2006   -7.5463   27.0672 C   0  0  0  0  0  0  0  0  0  0  0  0
    1.6305   -9.9794   17.2572 C   0  0  0  0  0  0  0  0  0  0  0  0
    1.9395   -7.9742   16.0942 C   0  0  0  0  0  0  0  0  0  0  0  0
    2.4588   -9.1010   16.6573 C   0  0  0  0  0  0  0  0  0  0  0  0
   -0.2377   -8.6126   16.7598 C   0  0  0  0  0  0  0  0  0  0  0  0
    4.0435   -6.9843   27.0054 N   0  0  0  0  0  0  0  0  0  0  0  0
   -2.8991  -11.6393   18.7446 C   0  0  0  0  0  0  0  0  0  0  0  0
    4.6212  -10.0843   29.5205 C   0  0  0  0  0  0  0  0  0  0  0  0
    2.0754   -9.0574   29.1390 N   0  0  0  0  0  0  0  0  0  0  0  0
    3.4977  -10.5288   30.1905 N   0  0  0  0  0  0  0  0  0  0  0  0
   -0.4201   -6.1220   27.6161 C   0  0  0  0  0  0  0  0  0  0  0  0
    2.9965   -7.3867   27.6867 C   0  0  0  0  0  0  0  0  0  0  0  0
    5.4288   -8.5715   27.9218 N   0  0  0  0  0  0  0  0  0  0  0  0
   -2.3827  -12.8506   19.1998 C   0  0  0  0  0  0  0  0  0  0  0  0
    0.5156   -7.6347   16.1404 C   0  0  0  0  0  0  0  0  0  0  0  0
   -0.7051  -10.8415   17.9539 C   0  0  0  0  0  0  0  0  0  0  0  0
    5.7236  -10.5705   29.7546 O   0  0  0  0  0  0  0  0  0  0  0  0
    1.7172   -5.5547   26.6876 C   0  0  0  0  0  0  0  0  0  0  0  0
    0.2018   -9.8239   17.3048 C   0  0  0  0  0  0  0  0  0  0  0  0
    4.3740   -9.0426   28.6463 C   0  0  0  0  0  0  0  0  0  0  0  0
  1  7  4  0
  1 22  4  0
  2 17  4  0
  2 20  4  0
  2 28  4  0
  3  6  1  0
  3 17  2  0
  3 19  1  0
  4 19  1  0
  4 26  1  0
  5 17  4  0
  5 18  4  0
  6 20  1  0
  7 24  4  0
  8 15  4  0
  8 19  3  0
  8 24  4  0
  8 26  1  0
  9 14  4  0
  9 21  4  0
 10 12  4  0
 10 27  4  0
 11 12  4  0
 11 23  4  0
 13 23  4  0
 13 27  4  0
 14 20  4  0
 15 22  4  0
 16 18  4  0
 16 25  2  0
 16 28  4  0
 21 28  4  0
 24 27  1  0
 25 28  1  0
M  END
$$$$

 Created by Python create_sdf_string function

 28 31  0  0  0  0  0  0  0  0999 V2000
   -1.0150  -13.0240   19.1174 C   0  0  0  0  0  0  0  0  0  0  0  0
    3.1121   -8.5055   28.5084 C   0  0  0  0  0  0  0  0  0  0  0  0
    0.5409   -7.1566   27.9670 C   0  0  0  0  0  0  0  0  0  0  0  0
    0.2926   -5.0779   26.7019 C   0  0  0  0  0  0  0  0  0  0  0  0
    2.3243  -10.0386   29.9971 C   0  0  0  0  0  0  0  0  0  0  0  0
    1.8368   -6.7704   27.4873 N   0  0  0  0  0  0  0  0  0  0  0  0
   -0.2131  -12.0822   18.4999 C   0  0  0  0  0  0  0  0  0  0  0  0
   -2.0647  -10.6660   18.1467 C   0  0  0  0  0  0  0  0  0  0  0  0
    5.2252   -7.5628   27.0918 C   0  0  0  0  0  0  0  0  0  0  0  0
    1.6178   -9.9999   17.2574 C   0  0  0  0  0  0  0  0  0  0  0  0
    1.9375   -7.9365   16.0884 C   0  0  0  0  0  0  0  0  0  0  0  0
    2.4558   -9.0896   16.6574 C   0  0  0  0  0  0  0  0  0  0  0  0
   -0.2516   -8.6221   16.7665 C   0  0  0  0  0  0  0  0  0  0  0  0
    4.0370   -6.9928   27.0132 N   0  0  0  0  0  0  0  0  0  0  0  0
   -2.9141  -11.6237   18.7382 C   0  0  0  0  0  0  0  0  0  0  0  0
    4.5918  -10.0965   29.5480 C   0  0  0  0  0  0  0  0  0  0  0  0
    2.0698   -9.0339   29.1684 N   0  0  0  0  0  0  0  0  0  0  0  0
    3.5011  -10.5327   30.1845 N   0  0  0  0  0  0  0  0  0  0  0  0
   -0.4122   -6.0888   27.5936 C   0  0  0  0  0  0  0  0  0  0  0  0
    2.9951   -7.4020   27.6553 C   0  0  0  0  0  0  0  0  0  0  0  0
    5.4328   -8.5651   27.9171 N   0  0  0  0  0  0  0  0  0  0  0  0
   -2.3933  -12.8384   19.2224 C   0  0  0  0  0  0  0  0  0  0  0  0
    0.5504   -7.6742   16.1542 C   0  0  0  0  0  0  0  0  0  0  0  0
   -0.6808  -10.8516   17.9850 C   0  0  0  0  0  0  0  0  0  0  0  0
    5.6985  -10.5589   29.7445 O   0  0  0  0  0  0  0  0  0  0  0  0
    1.7058   -5.5630   26.6938 C   0  0  0  0  0  0  0  0  0  0  0  0
    0.2160   -9.8274   17.3355 C   0  0  0  0  0  0  0  0  0  0  0  0
    4.3737   -9.0257   28.6325 C   0  0  0  0  0  0  0  0  0  0  0  0
  1  7  4  0
  1 22  4  0
  2 17  4  0
  2 20  4  0
  2 28  4  0
  3  6  1  0
  3 19  1  0
  4 19  1  0
  4 26  1  0
  5 17  4  0
  5 18  4  0
  6 20  1  0
  6 26  1  0
  7 24  4  0
  8 15  4  0
  8 24  4  0
  9 14  4  0
  9 21  4  0
 10 12  4  0
 10 27  4  0
 11 12  4  0
 11 23  4  0
 13 23  4  0
 13 27  4  0
 14 20  4  0
 15 22  4  0
 16 18  4  0
 16 25  2  0
 16 28  4  0
 21 28  4  0
 24 27  1  0
M  END
$$$$

 Created by Python create_sdf_string function

 28 35  0  0  0  0  0  0  0  0999 V2000
   -1.0202  -13.0229   19.1163 C   0  0  0  0  0  0  0  0  0  0  0  0
    3.1304   -8.5412   28.5227 C   0  0  0  0  0  0  0  0  0  0  0  0
    0.5042   -7.1890   27.9379 C   0  0  0  0  0  0  0  0  0  0  0  0
    0.3245   -5.0793   26.7108 C   0  0  0  0  0  0  0  0  0  0  0  0
    2.3078  -10.0614   29.9691 C   0  0  0  0  0  0  0  0  0  0  0  0
    1.8330   -6.7935   27.5007 N   0  0  0  0  0  0  0  0  0  0  0  0
   -0.2076  -12.0668   18.4846 C   0  0  0  0  0  0  0  0  0  0  0  0
   -2.0253  -10.6527   18.1580 C   0  0  0  0  0  0  0  0  0  0  0  0
    5.2223   -7.5619   27.1418 C   0  0  0  0  0  0  0  0  0  0  0  0
    1.5778   -9.9540   17.2222 C   0  0  0  0  0  0  0  0  0  0  0  0
    1.9082   -7.9454   16.1150 C   0  0  0  0  0  0  0  0  0  0  0  0
    2.4441   -9.1005   16.6838 C   0  0  0  0  0  0  0  0  0  0  0  0
   -0.2145   -8.6130   16.7829 C   0  0  0  0  0  0  0  0  0  0  0  0
    4.0765   -7.0003   26.9861 N   0  0  0  0  0  0  0  0  0  0  0  0
   -2.9017  -11.6076   18.7269 C   0  0  0  0  0  0  0  0  0  0  0  0
    4.6084  -10.1252   29.5559 C   0  0  0  0  0  0  0  0  0  0  0  0
    2.0512   -9.0564   29.1787 N   0  0  0  0  0  0  0  0  0  0  0  0
    3.4623  -10.5372   30.1753 N   0  0  0  0  0  0  0  0  0  0  0  0
   -0.3827   -6.1147   27.6048 C   0  0  0  0  0  0  0  0  0  0  0  0
    3.0074   -7.4476   27.6482 C   0  0  0  0  0  0  0  0  0  0  0  0
    5.4151   -8.5495   27.9134 N   0  0  0  0  0  0  0  0  0  0  0  0
   -2.3584  -12.8759   19.2390 C   0  0  0  0  0  0  0  0  0  0  0  0
    0.5404   -7.6190   16.2205 C   0  0  0  0  0  0  0  0  0  0  0  0
   -0.6608  -10.8214   18.0025 C   0  0  0  0  0  0  0  0  0  0  0  0
    5.7209  -10.5897   29.7264 O   0  0  0  0  0  0  0  0  0  0  0  0
    1.6888   -5.6068   26.7473 C   0  0  0  0  0  0  0  0  0  0  0  0
    0.2113   -9.7757   17.3234 C   0  0  0  0  0  0  0  0  0  0  0  0
    4.3994   -9.0343   28.6195 C   0  0  0  0  0  0  0  0  0  0  0  0
  1  7  4  0
  1 22  4  0
  2 17  4  0
  2 20  4  0
  2 28  4  0
  3  6  1  0
  3 19  1  0
  4 19  1  0
  4 26  1  0
  4 27  4  0
  5 17  4  0
  5 18  4  0
  6 20  1  0
  6 26  1  0
  7 24  4  0
  8  9  1  0
  8 15  4  0
  8 24  4  0
  9 14  4  0
  9 21  4  0
 10 12  4  0
 10 27  4  0
 11 12  4  0
 11 20  1  0
 11 23  4  0
 13 23  4  0
 13 27  4  0
 14 20  4  0
 15 18  3  0
 15 22  4  0
 16 18  4  0
 16 25  2  0
 16 28  4  0
 21 28  4  0
 24 27  1  0
M  END
$$$$

 Created by Python create_sdf_string function

 28 31  0  0  0  0  0  0  0  0999 V2000
   -0.9916  -13.0330   19.1028 C   0  0  0  0  0  0  0  0  0  0  0  0
    3.1215   -8.5318   28.5105 C   0  0  0  0  0  0  0  0  0  0  0  0
    0.5260   -7.1894   27.9438 C   0  0  0  0  0  0  0  0  0  0  0  0
    0.3378   -5.1048   26.7215 C   0  0  0  0  0  0  0  0  0  0  0  0
    2.2997  -10.0617   29.9834 C   0  0  0  0  0  0  0  0  0  0  0  0
    1.8373   -6.8011   27.4932 N   0  0  0  0  0  0  0  0  0  0  0  0
   -0.2023  -12.0844   18.5104 C   0  0  0  0  0  0  0  0  0  0  0  0
   -2.0487  -10.6701   18.1622 C   0  0  0  0  0  0  0  0  0  0  0  0
    5.2316   -7.5513   27.1214 C   0  0  0  0  0  0  0  0  0  0  0  0
    1.5942   -9.9744   17.2392 C   0  0  0  0  0  0  0  0  0  0  0  0
    1.9062   -7.9313   16.1308 C   0  0  0  0  0  0  0  0  0  0  0  0
    2.4363   -9.0758   16.6671 C   0  0  0  0  0  0  0  0  0  0  0  0
   -0.2422   -8.5972   16.7987 C   0  0  0  0  0  0  0  0  0  0  0  0
    4.0437   -7.0120   27.0084 N   0  0  0  0  0  0  0  0  0  0  0  0
   -2.8973  -11.6136   18.7348 C   0  0  0  0  0  0  0  0  0  0  0  0
    4.5862  -10.1268   29.5534 C   0  0  0  0  0  0  0  0  0  0  0  0
    2.0641   -9.0418   29.1684 N   0  0  0  0  0  0  0  0  0  0  0  0
    3.4873  -10.5524   30.1747 N   0  0  0  0  0  0  0  0  0  0  0  0
   -0.3836   -6.0961   27.5901 C   0  0  0  0  0  0  0  0  0  0  0  0
    3.0104   -7.4326   27.6467 C   0  0  0  0  0  0  0  0  0  0  0  0
    5.4270   -8.5676   27.9405 N   0  0  0  0  0  0  0  0  0  0  0  0
   -2.3761  -12.8499   19.2349 C   0  0  0  0  0  0  0  0  0  0  0  0
    0.5518   -7.6461   16.2201 C   0  0  0  0  0  0  0  0  0  0  0  0
   -0.6647  -10.8393   17.9975 C   0  0  0  0  0  0  0  0  0  0  0  0
    5.7037  -10.5911   29.7375 O   0  0  0  0  0  0  0  0  0  0  0  0
    1.7139   -5.6088   26.7370 C   0  0  0  0  0  0  0  0  0  0  0  0
    0.2205   -9.8025   17.3471 C   0  0  0  0  0  0  0  0  0  0  0  0
    4.3838   -9.0472   28.6394 C   0  0  0  0  0  0  0  0  0  0  0  0
  1  7  4  0
  1 22  4  0
  2 17  4  0
  2 20  4  0
  2 28  4  0
  3  6  1  0
  3 19  1  0
  4 19  1  0
  4 26  1  0
  5 17  4  0
  5 18  4  0
  6 20  1  0
  6 26  1  0
  7 24  4  0
  8 15  4  0
  8 24  4  0
  9 14  4  0
  9 21  4  0
 10 12  4  0
 10 27  4  0
 11 12  4  0
 11 23  4  0
 13 23  4  0
 13 27  4  0
 14 20  4  0
 15 22  4  0
 16 18  4  0
 16 25  2  0
 16 28  4  0
 21 28  4  0
 24 27  1  0
M  END
$$$$

 Created by Python create_sdf_string function

 28 33  0  0  0  0  0  0  0  0999 V2000
   -0.9994  -12.9897   19.1067 C   0  0  0  0  0  0  0  0  0  0  0  0
    3.1344   -8.5190   28.4850 C   0  0  0  0  0  0  0  0  0  0  0  0
    0.5603   -7.1716   27.9214 C   0  0  0  0  0  0  0  0  0  0  0  0
    0.3203   -5.0950   26.7051 C   0  0  0  0  0  0  0  0  0  0  0  0
    2.3193  -10.0767   30.0039 C   0  0  0  0  0  0  0  0  0  0  0  0
    1.8254   -6.8204   27.4895 N   0  0  0  0  0  0  0  0  0  0  0  0
   -0.1671  -12.1004   18.5321 C   0  0  0  0  0  0  0  0  0  0  0  0
   -2.0474  -10.6199   18.1856 C   0  0  0  0  0  0  0  0  0  0  0  0
    5.2677   -7.5661   27.1108 C   0  0  0  0  0  0  0  0  0  0  0  0
    1.5996   -9.9527   17.2399 C   0  0  0  0  0  0  0  0  0  0  0  0
    1.9139   -7.8930   16.1555 C   0  0  0  0  0  0  0  0  0  0  0  0
    2.4536   -9.0298   16.6552 C   0  0  0  0  0  0  0  0  0  0  0  0
   -0.2483   -8.5874   16.8175 C   0  0  0  0  0  0  0  0  0  0  0  0
    4.0576   -6.9710   27.0198 N   0  0  0  0  0  0  0  0  0  0  0  0
   -2.8843  -11.6296   18.7467 C   0  0  0  0  0  0  0  0  0  0  0  0
    4.5819  -10.1444   29.5591 C   0  0  0  0  0  0  0  0  0  0  0  0
    2.0816   -9.0398   29.1823 N   0  0  0  0  0  0  0  0  0  0  0  0
    3.4866  -10.5521   30.2160 N   0  0  0  0  0  0  0  0  0  0  0  0
   -0.4280   -6.1140   27.5929 C   0  0  0  0  0  0  0  0  0  0  0  0
    3.0297   -7.4822   27.6241 C   0  0  0  0  0  0  0  0  0  0  0  0
    5.4308   -8.5271   27.9286 N   0  0  0  0  0  0  0  0  0  0  0  0
   -2.3895  -12.8348   19.2459 C   0  0  0  0  0  0  0  0  0  0  0  0
    0.5796   -7.6874   16.2082 C   0  0  0  0  0  0  0  0  0  0  0  0
   -0.6858  -10.8036   17.9986 C   0  0  0  0  0  0  0  0  0  0  0  0
    5.7162  -10.5548   29.7291 O   0  0  0  0  0  0  0  0  0  0  0  0
    1.7125   -5.6195   26.7264 C   0  0  0  0  0  0  0  0  0  0  0  0
    0.2044   -9.8200   17.3446 C   0  0  0  0  0  0  0  0  0  0  0  0
    4.4113   -9.0327   28.6164 C   0  0  0  0  0  0  0  0  0  0  0  0
  1  7  4  0
  1 22  4  0
  2 17  4  0
  2 20  4  0
  2 26  4  0
  2 28  4  0
  3  6  1  0
  3 19  1  0
  4 19  1  0
  4 26  1  0
  5 17  4  0
  5 18  4  0
  6 20  1  0
  6 26  1  0
  7 24  4  0
  8 15  4  0
  8 24  4  0
  9 14  4  0
  9 21  4  0
 10 12  4  0
 10 27  4  0
 11 12  4  0
 11 23  4  0
 13 23  4  0
 13 27  4  0
 14 20  4  0
 14 28  2  0
 15 22  4  0
 16 18  4  0
 16 25  2  0
 16 28  4  0
 21 28  4  0
 24 27  1  0
M  END
$$$$

 Created by Python create_sdf_string function

 28 31  0  0  0  0  0  0  0  0999 V2000
   -0.9962  -13.0263   19.1150 C   0  0  0  0  0  0  0  0  0  0  0  0
    3.1299   -8.5310   28.5010 C   0  0  0  0  0  0  0  0  0  0  0  0
    0.5461   -7.1765   27.9316 C   0  0  0  0  0  0  0  0  0  0  0  0
    0.3332   -5.1142   26.7107 C   0  0  0  0  0  0  0  0  0  0  0  0
    2.3049  -10.0602   30.0035 C   0  0  0  0  0  0  0  0  0  0  0  0
    1.8352   -6.8147   27.4743 N   0  0  0  0  0  0  0  0  0  0  0  0
   -0.1827  -12.0795   18.5268 C   0  0  0  0  0  0  0  0  0  0  0  0
   -2.0618  -10.6543   18.1854 C   0  0  0  0  0  0  0  0  0  0  0  0
    5.2649   -7.5476   27.1068 C   0  0  0  0  0  0  0  0  0  0  0  0
    1.6125   -9.9681   17.2489 C   0  0  0  0  0  0  0  0  0  0  0  0
    1.9104   -7.8926   16.1556 C   0  0  0  0  0  0  0  0  0  0  0  0
    2.4493   -9.0499   16.6714 C   0  0  0  0  0  0  0  0  0  0  0  0
   -0.2606   -8.5966   16.8205 C   0  0  0  0  0  0  0  0  0  0  0  0
    4.0623   -6.9986   27.0051 N   0  0  0  0  0  0  0  0  0  0  0  0
   -2.8874  -11.6169   18.7525 C   0  0  0  0  0  0  0  0  0  0  0  0
    4.5870  -10.1206   29.5578 C   0  0  0  0  0  0  0  0  0  0  0  0
    2.0843   -9.0435   29.1738 N   0  0  0  0  0  0  0  0  0  0  0  0
    3.4979  -10.5593   30.1999 N   0  0  0  0  0  0  0  0  0  0  0  0
   -0.4105   -6.1139   27.5853 C   0  0  0  0  0  0  0  0  0  0  0  0
    3.0211   -7.4340   27.6287 C   0  0  0  0  0  0  0  0  0  0  0  0
    5.4374   -8.5603   27.9442 N   0  0  0  0  0  0  0  0  0  0  0  0
   -2.3813  -12.8312   19.2453 C   0  0  0  0  0  0  0  0  0  0  0  0
    0.5505   -7.6806   16.2196 C   0  0  0  0  0  0  0  0  0  0  0  0
   -0.6682  -10.8370   18.0168 C   0  0  0  0  0  0  0  0  0  0  0  0
    5.7013  -10.5656   29.7345 O   0  0  0  0  0  0  0  0  0  0  0  0
    1.7205   -5.6210   26.7190 C   0  0  0  0  0  0  0  0  0  0  0  0
    0.2169   -9.8148   17.3697 C   0  0  0  0  0  0  0  0  0  0  0  0
    4.3865   -9.0451   28.6391 C   0  0  0  0  0  0  0  0  0  0  0  0
  1  7  4  0
  1 22  4  0
  2 17  4  0
  2 20  4  0
  2 28  4  0
  3  6  1  0
  3 19  1  0
  4 19  1  0
  4 26  1  0
  5 17  4  0
  5 18  4  0
  6 20  1  0
  6 26  1  0
  7 24  4  0
  8 15  4  0
  8 24  4  0
  9 14  4  0
  9 21  4  0
 10 12  4  0
 10 27  4  0
 11 12  4  0
 11 23  4  0
 13 23  4  0
 13 27  4  0
 14 20  4  0
 15 22  4  0
 16 18  4  0
 16 25  2  0
 16 28  4  0
 21 28  4  0
 24 27  1  0
M  END
$$$$

 Created by Python create_sdf_string function

 28 32  0  0  0  0  0  0  0  0999 V2000
   -0.9884  -12.9919   19.1082 C   0  0  0  0  0  0  0  0  0  0  0  0
    3.1286   -8.5290   28.5013 C   0  0  0  0  0  0  0  0  0  0  0  0
    0.5687   -7.1815   27.9140 C   0  0  0  0  0  0  0  0  0  0  0  0
    0.3336   -5.1171   26.7113 C   0  0  0  0  0  0  0  0  0  0  0  0
    2.2904  -10.0572   30.0075 C   0  0  0  0  0  0  0  0  0  0  0  0
    1.8543   -6.8449   27.4700 N   0  0  0  0  0  0  0  0  0  0  0  0
   -0.1900  -12.0879   18.5192 C   0  0  0  0  0  0  0  0  0  0  0  0
   -2.0561  -10.6487   18.1953 C   0  0  0  0  0  0  0  0  0  0  0  0
    5.2689   -7.5516   27.1191 C   0  0  0  0  0  0  0  0  0  0  0  0
    1.9353   -7.9013   16.1531 C   0  0  0  0  0  0  0  0  0  0  0  0
    2.4489   -9.0469   16.6719 C   0  0  0  0  0  0  0  0  0  0  0  0
   -0.2389   -8.6181   16.8212 C   0  0  0  0  0  0  0  0  0  0  0  0
    4.0607   -7.0146   27.0079 N   0  0  0  0  0  0  0  0  0  0  0  0
   -2.8843  -11.6129   18.7427 C   0  0  0  0  0  0  0  0  0  0  0  0
    4.5958  -10.1432   29.5340 C   0  0  0  0  0  0  0  0  0  0  0  0
    2.0754   -9.0532   29.1773 N   0  0  0  0  0  0  0  0  0  0  0  0
    3.5038  -10.5374   30.2236 N   0  0  0  0  0  0  0  0  0  0  0  0
   -0.4188   -6.1201   27.5938 C   0  0  0  0  0  0  0  0  0  0  0  0
    3.0202   -7.4146   27.6185 C   0  0  0  0  0  0  0  0  0  0  0  0
    5.4066   -8.5538   27.9369 N   0  0  0  0  0  0  0  0  0  0  0  0
   -2.3799  -12.8225   19.2309 C   0  0  0  0  0  0  0  0  0  0  0  0
    0.5617   -7.6807   16.2160 C   0  0  0  0  0  0  0  0  0  0  0  0
   -0.6729  -10.8267   18.0125 C   0  0  0  0  0  0  0  0  0  0  0  0
    5.7096  -10.5462   29.7453 O   0  0  0  0  0  0  0  0  0  0  0  0
    1.7233   -5.6213   26.7323 C   0  0  0  0  0  0  0  0  0  0  0  0
    0.2091   -9.8251   17.3809 C   0  0  0  0  0  0  0  0  0  0  0  0
    4.3690   -9.0617   28.6454 C   0  0  0  0  0  0  0  0  0  0  0  0
    1.6250   -9.9759   17.2336 He  0  0  0  0  0  0  0  0  0  0  0  0
  1  7  4  0
  1 12  1  0
  1 21  4  0
  1 25  2  0
  2 16  4  0
  2 19  4  0
  2 27  4  0
  3  6  1  0
  3 18  1  0
  4 18  1  0
  4 25  1  0
  5 16  4  0
  5 17  4  0
  6 19  1  0
  6 25  1  0
  7 23  4  0
  8 14  4  0
  8 23  4  0
  9 13  4  0
  9 20  4  0
  9 23  1  0
 10 11  4  0
 10 22  4  0
 11 22  3  0
 12 22  4  0
 12 26  4  0
 13 19  4  0
 14 21  4  0
 15 17  4  0
 15 24  2  0
 15 27  4  0
 20 27  4  0
M  END
$$$$

 Created by Python create_sdf_string function

 28 31  0  0  0  0  0  0  0  0999 V2000
   -1.0000  -13.0145   19.1037 C   0  0  0  0  0  0  0  0  0  0  0  0
    3.1252   -8.5305   28.5038 C   0  0  0  0  0  0  0  0  0  0  0  0
    0.5582   -7.1889   27.9256 C   0  0  0  0  0  0  0  0  0  0  0  0
    0.3467   -5.1319   26.7139 C   0  0  0  0  0  0  0  0  0  0  0  0
    2.3010  -10.0586   30.0126 C   0  0  0  0  0  0  0  0  0  0  0  0
    1.8423   -6.8226   27.4620 N   0  0  0  0  0  0  0  0  0  0  0  0
   -0.1838  -12.0704   18.5182 C   0  0  0  0  0  0  0  0  0  0  0  0
   -2.0574  -10.6548   18.1836 C   0  0  0  0  0  0  0  0  0  0  0  0
    5.2625   -7.5536   27.1189 C   0  0  0  0  0  0  0  0  0  0  0  0
    1.6086   -9.9802   17.2540 C   0  0  0  0  0  0  0  0  0  0  0  0
    1.9205   -7.9023   16.1581 C   0  0  0  0  0  0  0  0  0  0  0  0
    2.4315   -9.0639   16.6833 C   0  0  0  0  0  0  0  0  0  0  0  0
   -0.2587   -8.6163   16.8287 C   0  0  0  0  0  0  0  0  0  0  0  0
    4.0641   -7.0186   27.0081 N   0  0  0  0  0  0  0  0  0  0  0  0
   -2.8984  -11.6035   18.7484 C   0  0  0  0  0  0  0  0  0  0  0  0
    4.5792  -10.1297   29.5668 C   0  0  0  0  0  0  0  0  0  0  0  0
    2.0803   -9.0461   29.1745 N   0  0  0  0  0  0  0  0  0  0  0  0
    3.4910  -10.5569   30.2132 N   0  0  0  0  0  0  0  0  0  0  0  0
   -0.4001   -6.1205   27.5847 C   0  0  0  0  0  0  0  0  0  0  0  0
    3.0211   -7.4303   27.6289 C   0  0  0  0  0  0  0  0  0  0  0  0
    5.4272   -8.5683   27.9435 N   0  0  0  0  0  0  0  0  0  0  0  0
   -2.3819  -12.8172   19.2325 C   0  0  0  0  0  0  0  0  0  0  0  0
    0.5496   -7.6818   16.2260 C   0  0  0  0  0  0  0  0  0  0  0  0
   -0.6616  -10.8402   18.0203 C   0  0  0  0  0  0  0  0  0  0  0  0
    5.6987  -10.5729   29.7509 O   0  0  0  0  0  0  0  0  0  0  0  0
    1.7311   -5.6215   26.7235 C   0  0  0  0  0  0  0  0  0  0  0  0
    0.2221   -9.8240   17.3768 C   0  0  0  0  0  0  0  0  0  0  0  0
    4.3787   -9.0551   28.6434 C   0  0  0  0  0  0  0  0  0  0  0  0
  1  7  4  0
  1 22  4  0
  2 17  4  0
  2 20  4  0
  2 28  4  0
  3  6  1  0
  3 19  1  0
  4 19  1  0
  4 26  1  0
  5 17  4  0
  5 18  4  0
  6 20  1  0
  6 26  1  0
  7 24  4  0
  8 15  4  0
  8 24  4  0
  9 14  4  0
  9 21  4  0
 10 12  4  0
 10 27  4  0
 11 12  4  0
 11 23  4  0
 13 23  4  0
 13 27  4  0
 14 20  4  0
 15 22  4  0
 16 18  4  0
 16 25  2  0
 16 28  4  0
 21 28  4  0
 24 27  1  0
M  END
$$$$

 Created by Python create_sdf_string function

 28 31  0  0  0  0  0  0  0  0999 V2000
   -0.9955  -13.0295   19.1121 C   0  0  0  0  0  0  0  0  0  0  0  0
    3.1206   -8.5266   28.4978 C   0  0  0  0  0  0  0  0  0  0  0  0
    0.5506   -7.1933   27.9190 C   0  0  0  0  0  0  0  0  0  0  0  0
    0.3481   -5.1262   26.7141 C   0  0  0  0  0  0  0  0  0  0  0  0
    2.3063  -10.0748   30.0130 C   0  0  0  0  0  0  0  0  0  0  0  0
    1.8428   -6.7988   27.4538 N   0  0  0  0  0  0  0  0  0  0  0  0
   -0.1833  -12.0742   18.5288 C   0  0  0  0  0  0  0  0  0  0  0  0
   -2.0676  -10.6439   18.1857 C   0  0  0  0  0  0  0  0  0  0  0  0
    5.2628   -7.5704   27.1155 C   0  0  0  0  0  0  0  0  0  0  0  0
    1.5985   -9.9692   17.2546 C   0  0  0  0  0  0  0  0  0  0  0  0
    1.9348   -7.9274   16.1840 C   0  0  0  0  0  0  0  0  0  0  0  0
    2.4482   -9.0528   16.6868 C   0  0  0  0  0  0  0  0  0  0  0  0
   -0.2616   -8.6286   16.8273 C   0  0  0  0  0  0  0  0  0  0  0  0
    4.0685   -7.0012   27.0004 N   0  0  0  0  0  0  0  0  0  0  0  0
   -2.9100  -11.6063   18.7384 C   0  0  0  0  0  0  0  0  0  0  0  0
    4.5885  -10.1227   29.5813 C   0  0  0  0  0  0  0  0  0  0  0  0
    2.0787   -9.0424   29.1818 N   0  0  0  0  0  0  0  0  0  0  0  0
    3.5176  -10.5537   30.2067 N   0  0  0  0  0  0  0  0  0  0  0  0
   -0.3945   -6.0910   27.5864 C   0  0  0  0  0  0  0  0  0  0  0  0
    3.0287   -7.4352   27.6401 C   0  0  0  0  0  0  0  0  0  0  0  0
    5.4229   -8.5740   27.9480 N   0  0  0  0  0  0  0  0  0  0  0  0
   -2.3930  -12.8234   19.2308 C   0  0  0  0  0  0  0  0  0  0  0  0
    0.5488   -7.6850   16.2324 C   0  0  0  0  0  0  0  0  0  0  0  0
   -0.6708  -10.8464   18.0057 C   0  0  0  0  0  0  0  0  0  0  0  0
    5.7205  -10.5705   29.7507 O   0  0  0  0  0  0  0  0  0  0  0  0
    1.7271   -5.6205   26.7286 C   0  0  0  0  0  0  0  0  0  0  0  0
    0.2225   -9.8179   17.3818 C   0  0  0  0  0  0  0  0  0  0  0  0
    4.3975   -9.0464   28.6562 C   0  0  0  0  0  0  0  0  0  0  0  0
  1  7  4  0
  1 22  4  0
  2 17  4  0
  2 20  4  0
  2 28  4  0
  3  6  1  0
  3 19  1  0
  4 19  1  0
  4 26  1  0
  5 17  4  0
  5 18  4  0
  6 20  1  0
  6 26  1  0
  7 24  4  0
  8 15  4  0
  8 24  4  0
  8 26  2  0
  9 14  4  0
  9 21  4  0
 10 12  4  0
 10 27  4  0
 11 12  4  0
 11 23  4  0
 13 27  4  0
 14 20  4  0
 15 22  4  0
 16 18  4  0
 16 25  2  0
 16 28  4  0
 21 28  4  0
 24 27  1  0
M  END
$$$$

 Created by Python create_sdf_string function

 28 31  0  0  0  0  0  0  0  0999 V2000
   -0.9992  -13.0384   19.1137 C   0  0  0  0  0  0  0  0  0  0  0  0
    3.1321   -8.5276   28.5090 C   0  0  0  0  0  0  0  0  0  0  0  0
    0.5615   -7.1896   27.9249 C   0  0  0  0  0  0  0  0  0  0  0  0
    0.3696   -5.1347   26.7099 C   0  0  0  0  0  0  0  0  0  0  0  0
    2.3063  -10.0683   30.0143 C   0  0  0  0  0  0  0  0  0  0  0  0
    1.8540   -6.8168   27.4646 N   0  0  0  0  0  0  0  0  0  0  0  0
   -0.1988  -12.0884   18.5392 C   0  0  0  0  0  0  0  0  0  0  0  0
   -2.0675  -10.6732   18.1870 C   0  0  0  0  0  0  0  0  0  0  0  0
    5.2615   -7.5697   27.1173 C   0  0  0  0  0  0  0  0  0  0  0  0
    1.6096   -9.9765   17.2669 C   0  0  0  0  0  0  0  0  0  0  0  0
    1.9185   -7.9250   16.1887 C   0  0  0  0  0  0  0  0  0  0  0  0
    2.4416   -9.0710   16.7024 C   0  0  0  0  0  0  0  0  0  0  0  0
   -0.2358   -8.6230   16.8304 C   0  0  0  0  0  0  0  0  0  0  0  0
    4.0672   -7.0248   27.0120 N   0  0  0  0  0  0  0  0  0  0  0  0
   -2.9134  -11.6072   18.7448 C   0  0  0  0  0  0  0  0  0  0  0  0
    4.5846  -10.1215   29.5781 C   0  0  0  0  0  0  0  0  0  0  0  0
    2.0878   -9.0469   29.1797 N   0  0  0  0  0  0  0  0  0  0  0  0
    3.4968  -10.5515   30.2031 N   0  0  0  0  0  0  0  0  0  0  0  0
   -0.3706   -6.1041   27.5801 C   0  0  0  0  0  0  0  0  0  0  0  0
    3.0262   -7.4361   27.6383 C   0  0  0  0  0  0  0  0  0  0  0  0
    5.4361   -8.5758   27.9535 N   0  0  0  0  0  0  0  0  0  0  0  0
   -2.3849  -12.8266   19.2331 C   0  0  0  0  0  0  0  0  0  0  0  0
    0.5469   -7.6951   16.2465 C   0  0  0  0  0  0  0  0  0  0  0  0
   -0.6689  -10.8585   18.0291 C   0  0  0  0  0  0  0  0  0  0  0  0
    5.7049  -10.5694   29.7566 O   0  0  0  0  0  0  0  0  0  0  0  0
    1.7400   -5.6284   26.7252 C   0  0  0  0  0  0  0  0  0  0  0  0
    0.2279   -9.8283   17.3832 C   0  0  0  0  0  0  0  0  0  0  0  0
    4.3878   -9.0503   28.6558 C   0  0  0  0  0  0  0  0  0  0  0  0
  1  7  4  0
  1 22  4  0
  2 17  4  0
  2 20  4  0
  2 28  4  0
  3  6  1  0
  3 19  1  0
  4 19  1  0
  4 26  1  0
  5 17  4  0
  5 18  4  0
  6 20  1  0
  6 26  1  0
  7 24  4  0
  8 15  4  0
  8 24  4  0
  9 14  4  0
  9 21  4  0
 10 12  4  0
 10 27  4  0
 11 12  4  0
 11 23  4  0
 13 23  4  0
 13 27  4  0
 14 20  4  0
 15 22  4  0
 16 18  4  0
 16 25  2  0
 16 28  4  0
 21 28  4  0
 24 27  1  0
M  END
$$$$

 Created by Python create_sdf_string function

 28 31  0  0  0  0  0  0  0  0999 V2000
   -1.0072  -13.0373   19.1029 C   0  0  0  0  0  0  0  0  0  0  0  0
    3.1286   -8.5144   28.5106 C   0  0  0  0  0  0  0  0  0  0  0  0
    0.5645   -7.1963   27.9249 C   0  0  0  0  0  0  0  0  0  0  0  0
    0.3693   -5.1451   26.7020 C   0  0  0  0  0  0  0  0  0  0  0  0
    2.3069  -10.0702   30.0096 C   0  0  0  0  0  0  0  0  0  0  0  0
    1.8506   -6.8076   27.4609 N   0  0  0  0  0  0  0  0  0  0  0  0
   -0.1984  -12.0880   18.5419 C   0  0  0  0  0  0  0  0  0  0  0  0
   -2.0598  -10.6846   18.1850 C   0  0  0  0  0  0  0  0  0  0  0  0
    5.2701   -7.5605   27.1070 C   0  0  0  0  0  0  0  0  0  0  0  0
    1.6181   -9.9730   17.2714 C   0  0  0  0  0  0  0  0  0  0  0  0
    1.9122   -7.9381   16.1937 C   0  0  0  0  0  0  0  0  0  0  0  0
    2.4448   -9.0610   16.6930 C   0  0  0  0  0  0  0  0  0  0  0  0
   -0.2485   -8.6130   16.8317 C   0  0  0  0  0  0  0  0  0  0  0  0
    4.0656   -7.0321   27.0108 N   0  0  0  0  0  0  0  0  0  0  0  0
   -2.9093  -11.6174   18.7412 C   0  0  0  0  0  0  0  0  0  0  0  0
    4.5650  -10.1156   29.5742 C   0  0  0  0  0  0  0  0  0  0  0  0
    2.0965   -9.0449   29.1920 N   0  0  0  0  0  0  0  0  0  0  0  0
    3.4955  -10.5607   30.2086 N   0  0  0  0  0  0  0  0  0  0  0  0
   -0.3704   -6.1003   27.5748 C   0  0  0  0  0  0  0  0  0  0  0  0
    3.0353   -7.4574   27.6364 C   0  0  0  0  0  0  0  0  0  0  0  0
    5.4288   -8.5758   27.9577 N   0  0  0  0  0  0  0  0  0  0  0  0
   -2.3754  -12.8257   19.2431 C   0  0  0  0  0  0  0  0  0  0  0  0
    0.5584   -7.7007   16.2611 C   0  0  0  0  0  0  0  0  0  0  0  0
   -0.6676  -10.8558   18.0302 C   0  0  0  0  0  0  0  0  0  0  0  0
    5.6992  -10.5614   29.7317 O   0  0  0  0  0  0  0  0  0  0  0  0
    1.7324   -5.6233   26.7252 C   0  0  0  0  0  0  0  0  0  0  0  0
    0.2212   -9.8246   17.3821 C   0  0  0  0  0  0  0  0  0  0  0  0
    4.3862   -9.0653   28.6524 C   0  0  0  0  0  0  0  0  0  0  0  0
  1  7  4  0
  1 22  4  0
  2 17  4  0
  2 20  4  0
  2 28  4  0
  3  6  1  0
  3 19  1  0
  4 19  1  0
  4 26  1  0
  5 17  4  0
  5 18  4  0
  6 20  1  0
  6 26  1  0
  7 24  4  0
  8 15  4  0
  8 24  4  0
  9 14  4  0
  9 21  4  0
 10 12  4  0
 10 27  4  0
 11 12  4  0
 11 23  4  0
 13 23  4  0
 13 27  4  0
 14 20  4  0
 15 22  4  0
 16 18  4  0
 16 25  2  0
 16 28  4  0
 21 28  4  0
 24 27  1  0
M  END
$$$$

 Created by Python create_sdf_string function

 28 31  0  0  0  0  0  0  0  0999 V2000
   -1.0047  -13.0479   19.1115 C   0  0  0  0  0  0  0  0  0  0  0  0
    3.1353   -8.5312   28.5145 C   0  0  0  0  0  0  0  0  0  0  0  0
    0.5737   -7.1924   27.9296 C   0  0  0  0  0  0  0  0  0  0  0  0
    0.3849   -5.1520   26.6988 C   0  0  0  0  0  0  0  0  0  0  0  0
    2.3054  -10.0638   30.0147 C   0  0  0  0  0  0  0  0  0  0  0  0
    1.8629   -6.8231   27.4670 N   0  0  0  0  0  0  0  0  0  0  0  0
   -0.2090  -12.0964   18.5485 C   0  0  0  0  0  0  0  0  0  0  0  0
   -2.0642  -10.6926   18.1848 C   0  0  0  0  0  0  0  0  0  0  0  0
    5.2669   -7.5675   27.1129 C   0  0  0  0  0  0  0  0  0  0  0  0
    1.6202   -9.9842   17.2828 C   0  0  0  0  0  0  0  0  0  0  0  0
    1.8988   -7.9281   16.1958 C   0  0  0  0  0  0  0  0  0  0  0  0
    2.4417   -9.0763   16.7076 C   0  0  0  0  0  0  0  0  0  0  0  0
   -0.2564   -8.6192   16.8430 C   0  0  0  0  0  0  0  0  0  0  0  0
    4.0652   -7.0375   27.0101 N   0  0  0  0  0  0  0  0  0  0  0  0
   -2.9108  -11.6219   18.7494 C   0  0  0  0  0  0  0  0  0  0  0  0
    4.5713  -10.1255   29.5749 C   0  0  0  0  0  0  0  0  0  0  0  0
    2.1002   -9.0457   29.1890 N   0  0  0  0  0  0  0  0  0  0  0  0
    3.4873  -10.5606   30.2057 N   0  0  0  0  0  0  0  0  0  0  0  0
   -0.3487   -6.1122   27.5689 C   0  0  0  0  0  0  0  0  0  0  0  0
    3.0322   -7.4423   27.6361 C   0  0  0  0  0  0  0  0  0  0  0  0
    5.4351   -8.5738   27.9530 N   0  0  0  0  0  0  0  0  0  0  0  0
   -2.3835  -12.8339   19.2461 C   0  0  0  0  0  0  0  0  0  0  0  0
    0.5440   -7.6980   16.2650 C   0  0  0  0  0  0  0  0  0  0  0  0
   -0.6718  -10.8662   18.0373 C   0  0  0  0  0  0  0  0  0  0  0  0
    5.6806  -10.5724   29.7495 O   0  0  0  0  0  0  0  0  0  0  0  0
    1.7500   -5.6394   26.7243 C   0  0  0  0  0  0  0  0  0  0  0  0
    0.2238   -9.8285   17.3928 C   0  0  0  0  0  0  0  0  0  0  0  0
    4.3857   -9.0552   28.6567 C   0  0  0  0  0  0  0  0  0  0  0  0
  1  7  4  0
  1 22  4  0
  2 17  4  0
  2 20  4  0
  2 28  4  0
  3  6  1  0
  3 19  1  0
  4 19  1  0
  4 26  1  0
  5 17  4  0
  5 18  4  0
  6 20  1  0
  6 26  1  0
  7 24  4  0
  8 15  4  0
  8 24  4  0
  9 14  4  0
  9 21  4  0
 10 12  4  0
 10 27  4  0
 11 12  4  0
 11 23  4  0
 13 23  4  0
 13 27  4  0
 14 20  4  0
 15 22  4  0
 16 18  4  0
 16 25  2  0
 16 28  4  0
 21 28  4  0
 24 27  1  0
M  END
$$$$

 Created by Python create_sdf_string function

 28 31  0  0  0  0  0  0  0  0999 V2000
   -1.0004  -13.0554   19.1132 C   0  0  0  0  0  0  0  0  0  0  0  0
    3.1427   -8.5339   28.5162 C   0  0  0  0  0  0  0  0  0  0  0  0
    0.5679   -7.1913   27.9282 C   0  0  0  0  0  0  0  0  0  0  0  0
    0.3892   -5.1561   26.7023 C   0  0  0  0  0  0  0  0  0  0  0  0
    2.3053  -10.0603   30.0140 C   0  0  0  0  0  0  0  0  0  0  0  0
    1.8604   -6.8235   27.4670 N   0  0  0  0  0  0  0  0  0  0  0  0
   -0.2061  -12.0958   18.5476 C   0  0  0  0  0  0  0  0  0  0  0  0
   -2.0599  -10.6881   18.1875 C   0  0  0  0  0  0  0  0  0  0  0  0
    5.2678   -7.5723   27.1147 C   0  0  0  0  0  0  0  0  0  0  0  0
    1.6205   -9.9847   17.2856 C   0  0  0  0  0  0  0  0  0  0  0  0
    1.8960   -7.9266   16.1999 C   0  0  0  0  0  0  0  0  0  0  0  0
    2.4401   -9.0764   16.7031 C   0  0  0  0  0  0  0  0  0  0  0  0
   -0.2542   -8.6170   16.8472 C   0  0  0  0  0  0  0  0  0  0  0  0
    4.0701   -7.0315   27.0074 N   0  0  0  0  0  0  0  0  0  0  0  0
   -2.9128  -11.6181   18.7491 C   0  0  0  0  0  0  0  0  0  0  0  0
    4.5735  -10.1292   29.5729 C   0  0  0  0  0  0  0  0  0  0  0  0
    2.1041   -9.0471   29.1878 N   0  0  0  0  0  0  0  0  0  0  0  0
    3.4810  -10.5642   30.2071 N   0  0  0  0  0  0  0  0  0  0  0  0
   -0.3520   -6.1118   27.5708 C   0  0  0  0  0  0  0  0  0  0  0  0
    3.0365   -7.4421   27.6343 C   0  0  0  0  0  0  0  0  0  0  0  0
    5.4262   -8.5720   27.9565 C   0  0  0  0  0  0  0  0  0  0  0  0
   -2.3772  -12.8338   19.2458 C   0  0  0  0  0  0  0  0  0  0  0  0
    0.5460   -7.6954   16.2680 C   0  0  0  0  0  0  0  0  0  0  0  0
   -0.6714  -10.8593   18.0419 C   0  0  0  0  0  0  0  0  0  0  0  0
    5.6790  -10.5735   29.7518 O   0  0  0  0  0  0  0  0  0  0  0  0
    1.7475   -5.6396   26.7207 C   0  0  0  0  0  0  0  0  0  0  0  0
    0.2219   -9.8265   17.3977 C   0  0  0  0  0  0  0  0  0  0  0  0
    4.3853   -9.0535   28.6529 C   0  0  0  0  0  0  0  0  0  0  0  0
  1  7  4  0
  1 22  4  0
  2 17  4  0
  2 20  4  0
  2 28  4  0
  3  6  1  0
  3 19  1  0
  4 19  1  0
  4 26  1  0
  5 17  4  0
  5 18  4  0
  6 20  1  0
  6 26  1  0
  7 24  4  0
  8 15  4  0
  8 24  4  0
  9 14  4  0
  9 21  4  0
 10 12  4  0
 10 27  4  0
 11 12  4  0
 11 23  4  0
 13 23  4  0
 13 27  4  0
 14 20  4  0
 15 22  4  0
 16 18  4  0
 16 25  2  0
 16 28  4  0
 21 28  4  0
 24 27  1  0
M  END
$$$$

 Created by Python create_sdf_string function

 28 31  0  0  0  0  0  0  0  0999 V2000
   -1.0054  -13.0622   19.1198 C   0  0  0  0  0  0  0  0  0  0  0  0
    3.1478   -8.5360   28.5161 C   0  0  0  0  0  0  0  0  0  0  0  0
    0.5798   -7.1906   27.9330 C   0  0  0  0  0  0  0  0  0  0  0  0
    0.3978   -5.1561   26.6955 C   0  0  0  0  0  0  0  0  0  0  0  0
    2.3063  -10.0533   30.0125 C   0  0  0  0  0  0  0  0  0  0  0  0
    1.8591   -6.8254   27.4685 N   0  0  0  0  0  0  0  0  0  0  0  0
   -0.2167  -12.1055   18.5568 C   0  0  0  0  0  0  0  0  0  0  0  0
   -2.0661  -10.6994   18.1916 C   0  0  0  0  0  0  0  0  0  0  0  0
    5.2703   -7.5691   27.1123 C   0  0  0  0  0  0  0  0  0  0  0  0
    1.6204   -9.9887   17.2935 C   0  0  0  0  0  0  0  0  0  0  0  0
    1.8931   -7.9265   16.2047 C   0  0  0  0  0  0  0  0  0  0  0  0
    2.4396   -9.0801   16.7132 C   0  0  0  0  0  0  0  0  0  0  0  0
   -0.2575   -8.6234   16.8582 C   0  0  0  0  0  0  0  0  0  0  0  0
    4.0614   -7.0367   27.0106 N   0  0  0  0  0  0  0  0  0  0  0  0
   -2.9133  -11.6279   18.7578 C   0  0  0  0  0  0  0  0  0  0  0  0
    4.5688  -10.1291   29.5758 C   0  0  0  0  0  0  0  0  0  0  0  0
    2.1008   -9.0410   29.1852 N   0  0  0  0  0  0  0  0  0  0  0  0
    3.4829  -10.5697   30.2091 N   0  0  0  0  0  0  0  0  0  0  0  0
   -0.3363   -6.1172   27.5628 C   0  0  0  0  0  0  0  0  0  0  0  0
    3.0331   -7.4400   27.6362 C   0  0  0  0  0  0  0  0  0  0  0  0
    5.4553   -8.5933   27.9644 C   0  0  0  0  0  0  0  0  0  0  0  0
   -2.3870  -12.8440   19.2512 C   0  0  0  0  0  0  0  0  0  0  0  0
    0.5331   -7.6964   16.2751 C   0  0  0  0  0  0  0  0  0  0  0  0
   -0.6740  -10.8737   18.0482 C   0  0  0  0  0  0  0  0  0  0  0  0
    5.6751  -10.5870   29.7637 O   0  0  0  0  0  0  0  0  0  0  0  0
    1.7612   -5.6483   26.7172 C   0  0  0  0  0  0  0  0  0  0  0  0
    0.2221   -9.8326   17.4055 C   0  0  0  0  0  0  0  0  0  0  0  0
    4.3850   -9.0730   28.6745 C   0  0  0  0  0  0  0  0  0  0  0  0
  1  7  4  0
  1 22  4  0
  2 17  4  0
  2 20  4  0
  2 28  4  0
  3  6  1  0
  3 19  1  0
  4 19  1  0
  4 26  1  0
  5 17  4  0
  5 18  4  0
  6 20  1  0
  6 26  1  0
  7 24  4  0
  8 15  4  0
  8 24  4  0
  9 14  4  0
  9 21  4  0
 10 12  4  0
 10 27  4  0
 11 12  4  0
 11 23  4  0
 13 23  4  0
 13 27  4  0
 14 20  4  0
 15 22  4  0
 16 18  4  0
 16 25  2  0
 16 28  4  0
 21 28  4  0
 24 27  1  0
M  END
$$$$

 Created by Python create_sdf_string function

 28 31  0  0  0  0  0  0  0  0999 V2000
   -1.0054  -13.0622   19.1198 C   0  0  0  0  0  0  0  0  0  0  0  0
    3.1478   -8.5360   28.5161 C   0  0  0  0  0  0  0  0  0  0  0  0
    0.5798   -7.1906   27.9330 C   0  0  0  0  0  0  0  0  0  0  0  0
    0.3978   -5.1561   26.6955 C   0  0  0  0  0  0  0  0  0  0  0  0
    2.3063  -10.0533   30.0125 C   0  0  0  0  0  0  0  0  0  0  0  0
    1.8591   -6.8254   27.4685 N   0  0  0  0  0  0  0  0  0  0  0  0
   -0.2167  -12.1055   18.5568 C   0  0  0  0  0  0  0  0  0  0  0  0
   -2.0661  -10.6994   18.1916 C   0  0  0  0  0  0  0  0  0  0  0  0
    5.2703   -7.5691   27.1123 C   0  0  0  0  0  0  0  0  0  0  0  0
    1.6204   -9.9887   17.2935 C   0  0  0  0  0  0  0  0  0  0  0  0
    1.8931   -7.9265   16.2047 C   0  0  0  0  0  0  0  0  0  0  0  0
    2.4396   -9.0801   16.7132 C   0  0  0  0  0  0  0  0  0  0  0  0
   -0.2575   -8.6234   16.8582 C   0  0  0  0  0  0  0  0  0  0  0  0
    4.0614   -7.0367   27.0106 N   0  0  0  0  0  0  0  0  0  0  0  0
   -2.9133  -11.6279   18.7578 C   0  0  0  0  0  0  0  0  0  0  0  0
    4.5688  -10.1291   29.5758 C   0  0  0  0  0  0  0  0  0  0  0  0
    2.1008   -9.0410   29.1852 N   0  0  0  0  0  0  0  0  0  0  0  0
    3.4829  -10.5697   30.2091 N   0  0  0  0  0  0  0  0  0  0  0  0
   -0.3363   -6.1172   27.5628 C   0  0  0  0  0  0  0  0  0  0  0  0
    3.0331   -7.4400   27.6362 C   0  0  0  0  0  0  0  0  0  0  0  0
    5.4553   -8.5933   27.9644 C   0  0  0  0  0  0  0  0  0  0  0  0
   -2.3870  -12.8440   19.2512 C   0  0  0  0  0  0  0  0  0  0  0  0
    0.5331   -7.6964   16.2751 C   0  0  0  0  0  0  0  0  0  0  0  0
   -0.6740  -10.8737   18.0482 C   0  0  0  0  0  0  0  0  0  0  0  0
    5.6751  -10.5870   29.7637 O   0  0  0  0  0  0  0  0  0  0  0  0
    1.7612   -5.6483   26.7172 C   0  0  0  0  0  0  0  0  0  0  0  0
    0.2221   -9.8326   17.4055 C   0  0  0  0  0  0  0  0  0  0  0  0
    4.3850   -9.0730   28.6745 C   0  0  0  0  0  0  0  0  0  0  0  0
  1  7  4  0
  1 22  4  0
  2 17  4  0
  2 20  4  0
  2 28  4  0
  3  6  1  0
  3 19  1  0
  4 19  1  0
  4 26  1  0
  5 17  4  0
  5 18  4  0
  6 20  1  0
  6 26  1  0
  7 24  4  0
  8 15  4  0
  8 24  4  0
  9 14  4  0
  9 21  4  0
 10 12  4  0
 10 27  4  0
 11 12  4  0
 11 23  4  0
 13 23  4  0
 13 27  4  0
 14 20  4  0
 15 22  4  0
 16 18  4  0
 16 25  2  0
 16 28  4  0
 21 28  4  0
 24 27  1  0
M  END
$$$$

 Created by Python create_sdf_string function

 28 31  0  0  0  0  0  0  0  0999 V2000
   -1.0054  -13.0622   19.1198 C   0  0  0  0  0  0  0  0  0  0  0  0
    3.1478   -8.5360   28.5161 C   0  0  0  0  0  0  0  0  0  0  0  0
    0.5798   -7.1906   27.9330 C   0  0  0  0  0  0  0  0  0  0  0  0
    0.3978   -5.1561   26.6955 C   0  0  0  0  0  0  0  0  0  0  0  0
    2.3063  -10.0533   30.0125 C   0  0  0  0  0  0  0  0  0  0  0  0
    1.8591   -6.8254   27.4685 N   0  0  0  0  0  0  0  0  0  0  0  0
   -0.2167  -12.1055   18.5568 C   0  0  0  0  0  0  0  0  0  0  0  0
   -2.0661  -10.6994   18.1916 C   0  0  0  0  0  0  0  0  0  0  0  0
    5.2703   -7.5691   27.1123 C   0  0  0  0  0  0  0  0  0  0  0  0
    1.6204   -9.9887   17.2935 C   0  0  0  0  0  0  0  0  0  0  0  0
    1.8931   -7.9265   16.2047 C   0  0  0  0  0  0  0  0  0  0  0  0
    2.4396   -9.0801   16.7132 C   0  0  0  0  0  0  0  0  0  0  0  0
   -0.2575   -8.6234   16.8582 C   0  0  0  0  0  0  0  0  0  0  0  0
    4.0614   -7.0367   27.0106 N   0  0  0  0  0  0  0  0  0  0  0  0
   -2.9133  -11.6279   18.7578 C   0  0  0  0  0  0  0  0  0  0  0  0
    4.5688  -10.1291   29.5758 C   0  0  0  0  0  0  0  0  0  0  0  0
    2.1008   -9.0410   29.1852 N   0  0  0  0  0  0  0  0  0  0  0  0
    3.4829  -10.5697   30.2091 N   0  0  0  0  0  0  0  0  0  0  0  0
   -0.3363   -6.1172   27.5628 C   0  0  0  0  0  0  0  0  0  0  0  0
    3.0331   -7.4400   27.6362 C   0  0  0  0  0  0  0  0  0  0  0  0
    5.4553   -8.5933   27.9644 C   0  0  0  0  0  0  0  0  0  0  0  0
   -2.3870  -12.8440   19.2512 C   0  0  0  0  0  0  0  0  0  0  0  0
    0.5331   -7.6964   16.2751 C   0  0  0  0  0  0  0  0  0  0  0  0
   -0.6740  -10.8737   18.0482 C   0  0  0  0  0  0  0  0  0  0  0  0
    5.6751  -10.5870   29.7637 O   0  0  0  0  0  0  0  0  0  0  0  0
    1.7612   -5.6483   26.7172 C   0  0  0  0  0  0  0  0  0  0  0  0
    0.2221   -9.8326   17.4055 C   0  0  0  0  0  0  0  0  0  0  0  0
    4.3850   -9.0730   28.6745 C   0  0  0  0  0  0  0  0  0  0  0  0
  1  7  4  0
  1 22  4  0
  2 17  4  0
  2 20  4  0
  2 28  4  0
  3  6  1  0
  3 19  1  0
  4 19  1  0
  4 26  1  0
  5 17  4  0
  5 18  4  0
  6 20  1  0
  6 26  1  0
  7 24  4  0
  8 15  4  0
  8 24  4  0
  9 14  4  0
  9 21  4  0
 10 12  4  0
 10 27  4  0
 11 12  4  0
 11 23  4  0
 13 23  4  0
 13 27  4  0
 14 20  4  0
 15 22  4  0
 16 18  4  0
 16 25  2  0
 16 28  4  0
 21 28  4  0
 24 27  1  0
M  END
$$$$

 Created by Python create_sdf_string function

 28 31  0  0  0  0  0  0  0  0999 V2000
   -1.0054  -13.0622   19.1198 C   0  0  0  0  0  0  0  0  0  0  0  0
    3.1478   -8.5360   28.5161 C   0  0  0  0  0  0  0  0  0  0  0  0
    0.5798   -7.1906   27.9330 C   0  0  0  0  0  0  0  0  0  0  0  0
    0.3978   -5.1561   26.6955 C   0  0  0  0  0  0  0  0  0  0  0  0
    2.3063  -10.0533   30.0125 C   0  0  0  0  0  0  0  0  0  0  0  0
    1.8591   -6.8254   27.4685 N   0  0  0  0  0  0  0  0  0  0  0  0
   -0.2167  -12.1055   18.5568 C   0  0  0  0  0  0  0  0  0  0  0  0
   -2.0661  -10.6994   18.1916 C   0  0  0  0  0  0  0  0  0  0  0  0
    5.2703   -7.5691   27.1123 C   0  0  0  0  0  0  0  0  0  0  0  0
    1.6204   -9.9887   17.2935 C   0  0  0  0  0  0  0  0  0  0  0  0
    1.8931   -7.9265   16.2047 C   0  0  0  0  0  0  0  0  0  0  0  0
    2.4396   -9.0801   16.7132 C   0  0  0  0  0  0  0  0  0  0  0  0
   -0.2575   -8.6234   16.8582 C   0  0  0  0  0  0  0  0  0  0  0  0
    4.0614   -7.0367   27.0106 N   0  0  0  0  0  0  0  0  0  0  0  0
   -2.9133  -11.6279   18.7578 C   0  0  0  0  0  0  0  0  0  0  0  0
    4.5688  -10.1291   29.5758 C   0  0  0  0  0  0  0  0  0  0  0  0
    2.1008   -9.0410   29.1852 N   0  0  0  0  0  0  0  0  0  0  0  0
    3.4829  -10.5697   30.2091 N   0  0  0  0  0  0  0  0  0  0  0  0
   -0.3363   -6.1172   27.5628 C   0  0  0  0  0  0  0  0  0  0  0  0
    3.0331   -7.4400   27.6362 C   0  0  0  0  0  0  0  0  0  0  0  0
    5.4553   -8.5933   27.9644 C   0  0  0  0  0  0  0  0  0  0  0  0
   -2.3870  -12.8440   19.2512 C   0  0  0  0  0  0  0  0  0  0  0  0
    0.5331   -7.6964   16.2751 C   0  0  0  0  0  0  0  0  0  0  0  0
   -0.6740  -10.8737   18.0482 C   0  0  0  0  0  0  0  0  0  0  0  0
    5.6751  -10.5870   29.7637 O   0  0  0  0  0  0  0  0  0  0  0  0
    1.7612   -5.6483   26.7172 C   0  0  0  0  0  0  0  0  0  0  0  0
    0.2221   -9.8326   17.4055 C   0  0  0  0  0  0  0  0  0  0  0  0
    4.3850   -9.0730   28.6745 C   0  0  0  0  0  0  0  0  0  0  0  0
  1  7  4  0
  1 22  4  0
  2 17  4  0
  2 20  4  0
  2 28  4  0
  3  6  1  0
  3 19  1  0
  4 19  1  0
  4 26  1  0
  5 17  4  0
  5 18  4  0
  6 20  1  0
  6 26  1  0
  7 24  4  0
  8 15  4  0
  8 24  4  0
  9 14  4  0
  9 21  4  0
 10 12  4  0
 10 27  4  0
 11 12  4  0
 11 23  4  0
 13 23  4  0
 13 27  4  0
 14 20  4  0
 15 22  4  0
 16 18  4  0
 16 25  2  0
 16 28  4  0
 21 28  4  0
 24 27  1  0
M  END
$$$$

 Created by Python create_sdf_string function

 28 31  0  0  0  0  0  0  0  0999 V2000
   -1.0054  -13.0622   19.1198 C   0  0  0  0  0  0  0  0  0  0  0  0
    3.1478   -8.5360   28.5161 C   0  0  0  0  0  0  0  0  0  0  0  0
    0.5798   -7.1906   27.9330 C   0  0  0  0  0  0  0  0  0  0  0  0
    0.3978   -5.1561   26.6955 C   0  0  0  0  0  0  0  0  0  0  0  0
    2.3063  -10.0533   30.0125 C   0  0  0  0  0  0  0  0  0  0  0  0
    1.8591   -6.8254   27.4685 N   0  0  0  0  0  0  0  0  0  0  0  0
   -0.2167  -12.1055   18.5568 C   0  0  0  0  0  0  0  0  0  0  0  0
   -2.0661  -10.6994   18.1916 C   0  0  0  0  0  0  0  0  0  0  0  0
    5.2703   -7.5691   27.1123 C   0  0  0  0  0  0  0  0  0  0  0  0
    1.6204   -9.9887   17.2935 C   0  0  0  0  0  0  0  0  0  0  0  0
    1.8931   -7.9265   16.2047 C   0  0  0  0  0  0  0  0  0  0  0  0
    2.4396   -9.0801   16.7132 C   0  0  0  0  0  0  0  0  0  0  0  0
   -0.2575   -8.6234   16.8582 C   0  0  0  0  0  0  0  0  0  0  0  0
    4.0614   -7.0367   27.0106 N   0  0  0  0  0  0  0  0  0  0  0  0
   -2.9133  -11.6279   18.7578 C   0  0  0  0  0  0  0  0  0  0  0  0
    4.5688  -10.1291   29.5758 C   0  0  0  0  0  0  0  0  0  0  0  0
    2.1008   -9.0410   29.1852 N   0  0  0  0  0  0  0  0  0  0  0  0
    3.4829  -10.5697   30.2091 N   0  0  0  0  0  0  0  0  0  0  0  0
   -0.3363   -6.1172   27.5628 C   0  0  0  0  0  0  0  0  0  0  0  0
    3.0331   -7.4400   27.6362 C   0  0  0  0  0  0  0  0  0  0  0  0
    5.4553   -8.5933   27.9644 C   0  0  0  0  0  0  0  0  0  0  0  0
   -2.3870  -12.8440   19.2512 C   0  0  0  0  0  0  0  0  0  0  0  0
    0.5331   -7.6964   16.2751 C   0  0  0  0  0  0  0  0  0  0  0  0
   -0.6740  -10.8737   18.0482 C   0  0  0  0  0  0  0  0  0  0  0  0
    5.6751  -10.5870   29.7637 O   0  0  0  0  0  0  0  0  0  0  0  0
    1.7612   -5.6483   26.7172 C   0  0  0  0  0  0  0  0  0  0  0  0
    0.2221   -9.8326   17.4055 C   0  0  0  0  0  0  0  0  0  0  0  0
    4.3850   -9.0730   28.6745 C   0  0  0  0  0  0  0  0  0  0  0  0
  1  7  4  0
  1 22  4  0
  2 17  4  0
  2 20  4  0
  2 28  4  0
  3  6  1  0
  3 19  1  0
  4 19  1  0
  4 26  1  0
  5 17  4  0
  5 18  4  0
  6 20  1  0
  6 26  1  0
  7 24  4  0
  8 15  4  0
  8 24  4  0
  9 14  4  0
  9 21  4  0
 10 12  4  0
 10 27  4  0
 11 12  4  0
 11 23  4  0
 13 23  4  0
 13 27  4  0
 14 20  4  0
 15 22  4  0
 16 18  4  0
 16 25  2  0
 16 28  4  0
 21 28  4  0
 24 27  1  0
M  END
$$$$

 Created by Python create_sdf_string function

 28 31  0  0  0  0  0  0  0  0999 V2000
   -1.0054  -13.0622   19.1198 C   0  0  0  0  0  0  0  0  0  0  0  0
    3.1478   -8.5360   28.5161 C   0  0  0  0  0  0  0  0  0  0  0  0
    0.5798   -7.1906   27.9330 C   0  0  0  0  0  0  0  0  0  0  0  0
    0.3978   -5.1561   26.6955 C   0  0  0  0  0  0  0  0  0  0  0  0
    2.3063  -10.0533   30.0125 C   0  0  0  0  0  0  0  0  0  0  0  0
    1.8591   -6.8254   27.4685 N   0  0  0  0  0  0  0  0  0  0  0  0
   -0.2167  -12.1055   18.5568 C   0  0  0  0  0  0  0  0  0  0  0  0
   -2.0661  -10.6994   18.1916 C   0  0  0  0  0  0  0  0  0  0  0  0
    5.2703   -7.5691   27.1123 C   0  0  0  0  0  0  0  0  0  0  0  0
    1.6204   -9.9887   17.2935 C   0  0  0  0  0  0  0  0  0  0  0  0
    1.8931   -7.9265   16.2047 C   0  0  0  0  0  0  0  0  0  0  0  0
    2.4396   -9.0801   16.7132 C   0  0  0  0  0  0  0  0  0  0  0  0
   -0.2575   -8.6234   16.8582 C   0  0  0  0  0  0  0  0  0  0  0  0
    4.0614   -7.0367   27.0106 N   0  0  0  0  0  0  0  0  0  0  0  0
   -2.9133  -11.6279   18.7578 C   0  0  0  0  0  0  0  0  0  0  0  0
    4.5688  -10.1291   29.5758 C   0  0  0  0  0  0  0  0  0  0  0  0
    2.1008   -9.0410   29.1852 N   0  0  0  0  0  0  0  0  0  0  0  0
    3.4829  -10.5697   30.2091 N   0  0  0  0  0  0  0  0  0  0  0  0
   -0.3363   -6.1172   27.5628 C   0  0  0  0  0  0  0  0  0  0  0  0
    3.0331   -7.4400   27.6362 C   0  0  0  0  0  0  0  0  0  0  0  0
    5.4553   -8.5933   27.9644 C   0  0  0  0  0  0  0  0  0  0  0  0
   -2.3870  -12.8440   19.2512 C   0  0  0  0  0  0  0  0  0  0  0  0
    0.5331   -7.6964   16.2751 C   0  0  0  0  0  0  0  0  0  0  0  0
   -0.6740  -10.8737   18.0482 C   0  0  0  0  0  0  0  0  0  0  0  0
    5.6751  -10.5870   29.7637 O   0  0  0  0  0  0  0  0  0  0  0  0
    1.7612   -5.6483   26.7172 C   0  0  0  0  0  0  0  0  0  0  0  0
    0.2221   -9.8326   17.4055 C   0  0  0  0  0  0  0  0  0  0  0  0
    4.3850   -9.0730   28.6745 C   0  0  0  0  0  0  0  0  0  0  0  0
  1  7  4  0
  1 22  4  0
  2 17  4  0
  2 20  4  0
  2 28  4  0
  3  6  1  0
  3 19  1  0
  4 19  1  0
  4 26  1  0
  5 17  4  0
  5 18  4  0
  6 20  1  0
  6 26  1  0
  7 24  4  0
  8 15  4  0
  8 24  4  0
  9 14  4  0
  9 21  4  0
 10 12  4  0
 10 27  4  0
 11 12  4  0
 11 23  4  0
 13 23  4  0
 13 27  4  0
 14 20  4  0
 15 22  4  0
 16 18  4  0
 16 25  2  0
 16 28  4  0
 21 28  4  0
 24 27  1  0
M  END
$$$$

 Created by Python create_sdf_string function

 28 31  0  0  0  0  0  0  0  0999 V2000
   -1.0054  -13.0622   19.1198 C   0  0  0  0  0  0  0  0  0  0  0  0
    3.1478   -8.5360   28.5161 C   0  0  0  0  0  0  0  0  0  0  0  0
    0.5798   -7.1906   27.9330 C   0  0  0  0  0  0  0  0  0  0  0  0
    0.3978   -5.1561   26.6955 C   0  0  0  0  0  0  0  0  0  0  0  0
    2.3063  -10.0533   30.0125 C   0  0  0  0  0  0  0  0  0  0  0  0
    1.8591   -6.8254   27.4685 N   0  0  0  0  0  0  0  0  0  0  0  0
   -0.2167  -12.1055   18.5568 C   0  0  0  0  0  0  0  0  0  0  0  0
   -2.0661  -10.6994   18.1916 C   0  0  0  0  0  0  0  0  0  0  0  0
    5.2703   -7.5691   27.1123 C   0  0  0  0  0  0  0  0  0  0  0  0
    1.6204   -9.9887   17.2935 C   0  0  0  0  0  0  0  0  0  0  0  0
    1.8931   -7.9265   16.2047 C   0  0  0  0  0  0  0  0  0  0  0  0
    2.4396   -9.0801   16.7132 C   0  0  0  0  0  0  0  0  0  0  0  0
   -0.2575   -8.6234   16.8582 C   0  0  0  0  0  0  0  0  0  0  0  0
    4.0614   -7.0367   27.0106 N   0  0  0  0  0  0  0  0  0  0  0  0
   -2.9133  -11.6279   18.7578 C   0  0  0  0  0  0  0  0  0  0  0  0
    4.5688  -10.1291   29.5758 C   0  0  0  0  0  0  0  0  0  0  0  0
    2.1008   -9.0410   29.1852 N   0  0  0  0  0  0  0  0  0  0  0  0
    3.4829  -10.5697   30.2091 N   0  0  0  0  0  0  0  0  0  0  0  0
   -0.3363   -6.1172   27.5628 C   0  0  0  0  0  0  0  0  0  0  0  0
    3.0331   -7.4400   27.6362 C   0  0  0  0  0  0  0  0  0  0  0  0
    5.4553   -8.5933   27.9644 C   0  0  0  0  0  0  0  0  0  0  0  0
   -2.3870  -12.8440   19.2512 C   0  0  0  0  0  0  0  0  0  0  0  0
    0.5331   -7.6964   16.2751 C   0  0  0  0  0  0  0  0  0  0  0  0
   -0.6740  -10.8737   18.0482 C   0  0  0  0  0  0  0  0  0  0  0  0
    5.6751  -10.5870   29.7637 O   0  0  0  0  0  0  0  0  0  0  0  0
    1.7612   -5.6483   26.7172 C   0  0  0  0  0  0  0  0  0  0  0  0
    0.2221   -9.8326   17.4055 C   0  0  0  0  0  0  0  0  0  0  0  0
    4.3850   -9.0730   28.6745 C   0  0  0  0  0  0  0  0  0  0  0  0
  1  7  4  0
  1 22  4  0
  2 17  4  0
  2 20  4  0
  2 28  4  0
  3  6  1  0
  3 19  1  0
  4 19  1  0
  4 26  1  0
  5 17  4  0
  5 18  4  0
  6 20  1  0
  6 26  1  0
  7 24  4  0
  8 15  4  0
  8 24  4  0
  9 14  4  0
  9 21  4  0
 10 12  4  0
 10 27  4  0
 11 12  4  0
 11 23  4  0
 13 23  4  0
 13 27  4  0
 14 20  4  0
 15 22  4  0
 16 18  4  0
 16 25  2  0
 16 28  4  0
 21 28  4  0
 24 27  1  0
M  END
$$$$

 Created by Python create_sdf_string function

 28 31  0  0  0  0  0  0  0  0999 V2000
   -1.0054  -13.0622   19.1198 C   0  0  0  0  0  0  0  0  0  0  0  0
    3.1478   -8.5360   28.5161 C   0  0  0  0  0  0  0  0  0  0  0  0
    0.5798   -7.1906   27.9330 C   0  0  0  0  0  0  0  0  0  0  0  0
    0.3978   -5.1561   26.6955 C   0  0  0  0  0  0  0  0  0  0  0  0
    2.3063  -10.0533   30.0125 C   0  0  0  0  0  0  0  0  0  0  0  0
    1.8591   -6.8254   27.4685 N   0  0  0  0  0  0  0  0  0  0  0  0
   -0.2167  -12.1055   18.5568 C   0  0  0  0  0  0  0  0  0  0  0  0
   -2.0661  -10.6994   18.1916 C   0  0  0  0  0  0  0  0  0  0  0  0
    5.2703   -7.5691   27.1123 C   0  0  0  0  0  0  0  0  0  0  0  0
    1.6204   -9.9887   17.2935 C   0  0  0  0  0  0  0  0  0  0  0  0
    1.8931   -7.9265   16.2047 C   0  0  0  0  0  0  0  0  0  0  0  0
    2.4396   -9.0801   16.7132 C   0  0  0  0  0  0  0  0  0  0  0  0
   -0.2575   -8.6234   16.8582 C   0  0  0  0  0  0  0  0  0  0  0  0
    4.0614   -7.0367   27.0106 N   0  0  0  0  0  0  0  0  0  0  0  0
   -2.9133  -11.6279   18.7578 C   0  0  0  0  0  0  0  0  0  0  0  0
    4.5688  -10.1291   29.5758 C   0  0  0  0  0  0  0  0  0  0  0  0
    2.1008   -9.0410   29.1852 N   0  0  0  0  0  0  0  0  0  0  0  0
    3.4829  -10.5697   30.2091 N   0  0  0  0  0  0  0  0  0  0  0  0
   -0.3363   -6.1172   27.5628 C   0  0  0  0  0  0  0  0  0  0  0  0
    3.0331   -7.4400   27.6362 C   0  0  0  0  0  0  0  0  0  0  0  0
    5.4553   -8.5933   27.9644 C   0  0  0  0  0  0  0  0  0  0  0  0
   -2.3870  -12.8440   19.2512 C   0  0  0  0  0  0  0  0  0  0  0  0
    0.5331   -7.6964   16.2751 C   0  0  0  0  0  0  0  0  0  0  0  0
   -0.6740  -10.8737   18.0482 C   0  0  0  0  0  0  0  0  0  0  0  0
    5.6751  -10.5870   29.7637 O   0  0  0  0  0  0  0  0  0  0  0  0
    1.7612   -5.6483   26.7172 C   0  0  0  0  0  0  0  0  0  0  0  0
    0.2221   -9.8326   17.4055 C   0  0  0  0  0  0  0  0  0  0  0  0
    4.3850   -9.0730   28.6745 C   0  0  0  0  0  0  0  0  0  0  0  0
  1  7  4  0
  1 22  4  0
  2 17  4  0
  2 20  4  0
  2 28  4  0
  3  6  1  0
  3 19  1  0
  4 19  1  0
  4 26  1  0
  5 17  4  0
  5 18  4  0
  6 20  1  0
  6 26  1  0
  7 24  4  0
  8 15  4  0
  8 24  4  0
  9 14  4  0
  9 21  4  0
 10 12  4  0
 10 27  4  0
 11 12  4  0
 11 23  4  0
 13 23  4  0
 13 27  4  0
 14 20  4  0
 15 22  4  0
 16 18  4  0
 16 25  2  0
 16 28  4  0
 21 28  4  0
 24 27  1  0
M  END
$$$$

 Created by Python create_sdf_string function

 28 31  0  0  0  0  0  0  0  0999 V2000
   -1.0054  -13.0622   19.1198 C   0  0  0  0  0  0  0  0  0  0  0  0
    3.1478   -8.5360   28.5161 C   0  0  0  0  0  0  0  0  0  0  0  0
    0.5798   -7.1906   27.9330 C   0  0  0  0  0  0  0  0  0  0  0  0
    0.3978   -5.1561   26.6955 C   0  0  0  0  0  0  0  0  0  0  0  0
    2.3063  -10.0533   30.0125 C   0  0  0  0  0  0  0  0  0  0  0  0
    1.8591   -6.8254   27.4685 N   0  0  0  0  0  0  0  0  0  0  0  0
   -0.2167  -12.1055   18.5568 C   0  0  0  0  0  0  0  0  0  0  0  0
   -2.0661  -10.6994   18.1916 C   0  0  0  0  0  0  0  0  0  0  0  0
    5.2703   -7.5691   27.1123 C   0  0  0  0  0  0  0  0  0  0  0  0
    1.6204   -9.9887   17.2935 C   0  0  0  0  0  0  0  0  0  0  0  0
    1.8931   -7.9265   16.2047 C   0  0  0  0  0  0  0  0  0  0  0  0
    2.4396   -9.0801   16.7132 C   0  0  0  0  0  0  0  0  0  0  0  0
   -0.2575   -8.6234   16.8582 C   0  0  0  0  0  0  0  0  0  0  0  0
    4.0614   -7.0367   27.0106 N   0  0  0  0  0  0  0  0  0  0  0  0
   -2.9133  -11.6279   18.7578 C   0  0  0  0  0  0  0  0  0  0  0  0
    4.5688  -10.1291   29.5758 C   0  0  0  0  0  0  0  0  0  0  0  0
    2.1008   -9.0410   29.1852 N   0  0  0  0  0  0  0  0  0  0  0  0
    3.4829  -10.5697   30.2091 N   0  0  0  0  0  0  0  0  0  0  0  0
   -0.3363   -6.1172   27.5628 C   0  0  0  0  0  0  0  0  0  0  0  0
    3.0331   -7.4400   27.6362 C   0  0  0  0  0  0  0  0  0  0  0  0
    5.4553   -8.5933   27.9644 C   0  0  0  0  0  0  0  0  0  0  0  0
   -2.3870  -12.8440   19.2512 C   0  0  0  0  0  0  0  0  0  0  0  0
    0.5331   -7.6964   16.2751 C   0  0  0  0  0  0  0  0  0  0  0  0
   -0.6740  -10.8737   18.0482 C   0  0  0  0  0  0  0  0  0  0  0  0
    5.6751  -10.5870   29.7637 O   0  0  0  0  0  0  0  0  0  0  0  0
    1.7612   -5.6483   26.7172 C   0  0  0  0  0  0  0  0  0  0  0  0
    0.2221   -9.8326   17.4055 C   0  0  0  0  0  0  0  0  0  0  0  0
    4.3850   -9.0730   28.6745 C   0  0  0  0  0  0  0  0  0  0  0  0
  1  7  4  0
  1 22  4  0
  2 17  4  0
  2 20  4  0
  2 28  4  0
  3  6  1  0
  3 19  1  0
  4 19  1  0
  4 26  1  0
  5 17  4  0
  5 18  4  0
  6 20  1  0
  6 26  1  0
  7 24  4  0
  8 15  4  0
  8 24  4  0
  9 14  4  0
  9 21  4  0
 10 12  4  0
 10 27  4  0
 11 12  4  0
 11 23  4  0
 13 23  4  0
 13 27  4  0
 14 20  4  0
 15 22  4  0
 16 18  4  0
 16 25  2  0
 16 28  4  0
 21 28  4  0
 24 27  1  0
M  END
$$$$

 Created by Python create_sdf_string function

 28 31  0  0  0  0  0  0  0  0999 V2000
   -1.0054  -13.0622   19.1198 C   0  0  0  0  0  0  0  0  0  0  0  0
    3.1478   -8.5360   28.5161 C   0  0  0  0  0  0  0  0  0  0  0  0
    0.5798   -7.1906   27.9330 C   0  0  0  0  0  0  0  0  0  0  0  0
    0.3978   -5.1561   26.6955 C   0  0  0  0  0  0  0  0  0  0  0  0
    2.3063  -10.0533   30.0125 C   0  0  0  0  0  0  0  0  0  0  0  0
    1.8591   -6.8254   27.4685 N   0  0  0  0  0  0  0  0  0  0  0  0
   -0.2167  -12.1055   18.5568 C   0  0  0  0  0  0  0  0  0  0  0  0
   -2.0661  -10.6994   18.1916 C   0  0  0  0  0  0  0  0  0  0  0  0
    5.2703   -7.5691   27.1123 C   0  0  0  0  0  0  0  0  0  0  0  0
    1.6204   -9.9887   17.2935 C   0  0  0  0  0  0  0  0  0  0  0  0
    1.8931   -7.9265   16.2047 C   0  0  0  0  0  0  0  0  0  0  0  0
    2.4396   -9.0801   16.7132 C   0  0  0  0  0  0  0  0  0  0  0  0
   -0.2575   -8.6234   16.8582 C   0  0  0  0  0  0  0  0  0  0  0  0
    4.0614   -7.0367   27.0106 N   0  0  0  0  0  0  0  0  0  0  0  0
   -2.9133  -11.6279   18.7578 C   0  0  0  0  0  0  0  0  0  0  0  0
    4.5688  -10.1291   29.5758 C   0  0  0  0  0  0  0  0  0  0  0  0
    2.1008   -9.0410   29.1852 N   0  0  0  0  0  0  0  0  0  0  0  0
    3.4829  -10.5697   30.2091 N   0  0  0  0  0  0  0  0  0  0  0  0
   -0.3363   -6.1172   27.5628 C   0  0  0  0  0  0  0  0  0  0  0  0
    3.0331   -7.4400   27.6362 C   0  0  0  0  0  0  0  0  0  0  0  0
    5.4553   -8.5933   27.9644 C   0  0  0  0  0  0  0  0  0  0  0  0
   -2.3870  -12.8440   19.2512 C   0  0  0  0  0  0  0  0  0  0  0  0
    0.5331   -7.6964   16.2751 C   0  0  0  0  0  0  0  0  0  0  0  0
   -0.6740  -10.8737   18.0482 C   0  0  0  0  0  0  0  0  0  0  0  0
    5.6751  -10.5870   29.7637 O   0  0  0  0  0  0  0  0  0  0  0  0
    1.7612   -5.6483   26.7172 C   0  0  0  0  0  0  0  0  0  0  0  0
    0.2221   -9.8326   17.4055 C   0  0  0  0  0  0  0  0  0  0  0  0
    4.3850   -9.0730   28.6745 C   0  0  0  0  0  0  0  0  0  0  0  0
  1  7  4  0
  1 22  4  0
  2 17  4  0
  2 20  4  0
  2 28  4  0
  3  6  1  0
  3 19  1  0
  4 19  1  0
  4 26  1  0
  5 17  4  0
  5 18  4  0
  6 20  1  0
  6 26  1  0
  7 24  4  0
  8 15  4  0
  8 24  4  0
  9 14  4  0
  9 21  4  0
 10 12  4  0
 10 27  4  0
 11 12  4  0
 11 23  4  0
 13 23  4  0
 13 27  4  0
 14 20  4  0
 15 22  4  0
 16 18  4  0
 16 25  2  0
 16 28  4  0
 21 28  4  0
 24 27  1  0
M  END
$$$$

 Created by Python create_sdf_string function

 28 31  0  0  0  0  0  0  0  0999 V2000
   -1.0054  -13.0622   19.1198 C   0  0  0  0  0  0  0  0  0  0  0  0
    3.1478   -8.5360   28.5161 C   0  0  0  0  0  0  0  0  0  0  0  0
    0.5798   -7.1906   27.9330 C   0  0  0  0  0  0  0  0  0  0  0  0
    0.3978   -5.1561   26.6955 C   0  0  0  0  0  0  0  0  0  0  0  0
    2.3063  -10.0533   30.0125 C   0  0  0  0  0  0  0  0  0  0  0  0
    1.8591   -6.8254   27.4685 N   0  0  0  0  0  0  0  0  0  0  0  0
   -0.2167  -12.1055   18.5568 C   0  0  0  0  0  0  0  0  0  0  0  0
   -2.0661  -10.6994   18.1916 C   0  0  0  0  0  0  0  0  0  0  0  0
    5.2703   -7.5691   27.1123 C   0  0  0  0  0  0  0  0  0  0  0  0
    1.6204   -9.9887   17.2935 C   0  0  0  0  0  0  0  0  0  0  0  0
    1.8931   -7.9265   16.2047 C   0  0  0  0  0  0  0  0  0  0  0  0
    2.4396   -9.0801   16.7132 C   0  0  0  0  0  0  0  0  0  0  0  0
   -0.2575   -8.6234   16.8582 C   0  0  0  0  0  0  0  0  0  0  0  0
    4.0614   -7.0367   27.0106 N   0  0  0  0  0  0  0  0  0  0  0  0
   -2.9133  -11.6279   18.7578 C   0  0  0  0  0  0  0  0  0  0  0  0
    4.5688  -10.1291   29.5758 C   0  0  0  0  0  0  0  0  0  0  0  0
    2.1008   -9.0410   29.1852 N   0  0  0  0  0  0  0  0  0  0  0  0
    3.4829  -10.5697   30.2091 N   0  0  0  0  0  0  0  0  0  0  0  0
   -0.3363   -6.1172   27.5628 C   0  0  0  0  0  0  0  0  0  0  0  0
    3.0331   -7.4400   27.6362 C   0  0  0  0  0  0  0  0  0  0  0  0
    5.4553   -8.5933   27.9644 C   0  0  0  0  0  0  0  0  0  0  0  0
   -2.3870  -12.8440   19.2512 C   0  0  0  0  0  0  0  0  0  0  0  0
    0.5331   -7.6964   16.2751 C   0  0  0  0  0  0  0  0  0  0  0  0
   -0.6740  -10.8737   18.0482 C   0  0  0  0  0  0  0  0  0  0  0  0
    5.6751  -10.5870   29.7637 O   0  0  0  0  0  0  0  0  0  0  0  0
    1.7612   -5.6483   26.7172 C   0  0  0  0  0  0  0  0  0  0  0  0
    0.2221   -9.8326   17.4055 C   0  0  0  0  0  0  0  0  0  0  0  0
    4.3850   -9.0730   28.6745 C   0  0  0  0  0  0  0  0  0  0  0  0
  1  7  4  0
  1 22  4  0
  2 17  4  0
  2 20  4  0
  2 28  4  0
  3  6  1  0
  3 19  1  0
  4 19  1  0
  4 26  1  0
  5 17  4  0
  5 18  4  0
  6 20  1  0
  6 26  1  0
  7 24  4  0
  8 15  4  0
  8 24  4  0
  9 14  4  0
  9 21  4  0
 10 12  4  0
 10 27  4  0
 11 12  4  0
 11 23  4  0
 13 23  4  0
 13 27  4  0
 14 20  4  0
 15 22  4  0
 16 18  4  0
 16 25  2  0
 16 28  4  0
 21 28  4  0
 24 27  1  0
M  END
$$$$

 Created by Python create_sdf_string function

 28 31  0  0  0  0  0  0  0  0999 V2000
   -1.0054  -13.0622   19.1198 C   0  0  0  0  0  0  0  0  0  0  0  0
    3.1478   -8.5360   28.5161 C   0  0  0  0  0  0  0  0  0  0  0  0
    0.5798   -7.1906   27.9330 C   0  0  0  0  0  0  0  0  0  0  0  0
    0.3978   -5.1561   26.6955 C   0  0  0  0  0  0  0  0  0  0  0  0
    2.3063  -10.0533   30.0125 C   0  0  0  0  0  0  0  0  0  0  0  0
    1.8591   -6.8254   27.4685 N   0  0  0  0  0  0  0  0  0  0  0  0
   -0.2167  -12.1055   18.5568 C   0  0  0  0  0  0  0  0  0  0  0  0
   -2.0661  -10.6994   18.1916 C   0  0  0  0  0  0  0  0  0  0  0  0
    5.2703   -7.5691   27.1123 C   0  0  0  0  0  0  0  0  0  0  0  0
    1.6204   -9.9887   17.2935 C   0  0  0  0  0  0  0  0  0  0  0  0
    1.8931   -7.9265   16.2047 C   0  0  0  0  0  0  0  0  0  0  0  0
    2.4396   -9.0801   16.7132 C   0  0  0  0  0  0  0  0  0  0  0  0
   -0.2575   -8.6234   16.8582 C   0  0  0  0  0  0  0  0  0  0  0  0
    4.0614   -7.0367   27.0106 N   0  0  0  0  0  0  0  0  0  0  0  0
   -2.9133  -11.6279   18.7578 C   0  0  0  0  0  0  0  0  0  0  0  0
    4.5688  -10.1291   29.5758 C   0  0  0  0  0  0  0  0  0  0  0  0
    2.1008   -9.0410   29.1852 N   0  0  0  0  0  0  0  0  0  0  0  0
    3.4829  -10.5697   30.2091 N   0  0  0  0  0  0  0  0  0  0  0  0
   -0.3363   -6.1172   27.5628 C   0  0  0  0  0  0  0  0  0  0  0  0
    3.0331   -7.4400   27.6362 C   0  0  0  0  0  0  0  0  0  0  0  0
    5.4553   -8.5933   27.9644 C   0  0  0  0  0  0  0  0  0  0  0  0
   -2.3870  -12.8440   19.2512 C   0  0  0  0  0  0  0  0  0  0  0  0
    0.5331   -7.6964   16.2751 C   0  0  0  0  0  0  0  0  0  0  0  0
   -0.6740  -10.8737   18.0482 C   0  0  0  0  0  0  0  0  0  0  0  0
    5.6751  -10.5870   29.7637 O   0  0  0  0  0  0  0  0  0  0  0  0
    1.7612   -5.6483   26.7172 C   0  0  0  0  0  0  0  0  0  0  0  0
    0.2221   -9.8326   17.4055 C   0  0  0  0  0  0  0  0  0  0  0  0
    4.3850   -9.0730   28.6745 C   0  0  0  0  0  0  0  0  0  0  0  0
  1  7  4  0
  1 22  4  0
  2 17  4  0
  2 20  4  0
  2 28  4  0
  3  6  1  0
  3 19  1  0
  4 19  1  0
  4 26  1  0
  5 17  4  0
  5 18  4  0
  6 20  1  0
  6 26  1  0
  7 24  4  0
  8 15  4  0
  8 24  4  0
  9 14  4  0
  9 21  4  0
 10 12  4  0
 10 27  4  0
 11 12  4  0
 11 23  4  0
 13 23  4  0
 13 27  4  0
 14 20  4  0
 15 22  4  0
 16 18  4  0
 16 25  2  0
 16 28  4  0
 21 28  4  0
 24 27  1  0
M  END
$$$$

 Created by Python create_sdf_string function

 28 31  0  0  0  0  0  0  0  0999 V2000
   -1.0054  -13.0622   19.1198 C   0  0  0  0  0  0  0  0  0  0  0  0
    3.1478   -8.5360   28.5161 C   0  0  0  0  0  0  0  0  0  0  0  0
    0.5798   -7.1906   27.9330 C   0  0  0  0  0  0  0  0  0  0  0  0
    0.3978   -5.1561   26.6955 C   0  0  0  0  0  0  0  0  0  0  0  0
    2.3063  -10.0533   30.0125 C   0  0  0  0  0  0  0  0  0  0  0  0
    1.8591   -6.8254   27.4685 N   0  0  0  0  0  0  0  0  0  0  0  0
   -0.2167  -12.1055   18.5568 C   0  0  0  0  0  0  0  0  0  0  0  0
   -2.0661  -10.6994   18.1916 C   0  0  0  0  0  0  0  0  0  0  0  0
    5.2703   -7.5691   27.1123 C   0  0  0  0  0  0  0  0  0  0  0  0
    1.6204   -9.9887   17.2935 C   0  0  0  0  0  0  0  0  0  0  0  0
    1.8931   -7.9265   16.2047 C   0  0  0  0  0  0  0  0  0  0  0  0
    2.4396   -9.0801   16.7132 C   0  0  0  0  0  0  0  0  0  0  0  0
   -0.2575   -8.6234   16.8582 C   0  0  0  0  0  0  0  0  0  0  0  0
    4.0614   -7.0367   27.0106 N   0  0  0  0  0  0  0  0  0  0  0  0
   -2.9133  -11.6279   18.7578 C   0  0  0  0  0  0  0  0  0  0  0  0
    4.5688  -10.1291   29.5758 C   0  0  0  0  0  0  0  0  0  0  0  0
    2.1008   -9.0410   29.1852 N   0  0  0  0  0  0  0  0  0  0  0  0
    3.4829  -10.5697   30.2091 N   0  0  0  0  0  0  0  0  0  0  0  0
   -0.3363   -6.1172   27.5628 C   0  0  0  0  0  0  0  0  0  0  0  0
    3.0331   -7.4400   27.6362 C   0  0  0  0  0  0  0  0  0  0  0  0
    5.4553   -8.5933   27.9644 C   0  0  0  0  0  0  0  0  0  0  0  0
   -2.3870  -12.8440   19.2512 C   0  0  0  0  0  0  0  0  0  0  0  0
    0.5331   -7.6964   16.2751 C   0  0  0  0  0  0  0  0  0  0  0  0
   -0.6740  -10.8737   18.0482 C   0  0  0  0  0  0  0  0  0  0  0  0
    5.6751  -10.5870   29.7637 O   0  0  0  0  0  0  0  0  0  0  0  0
    1.7612   -5.6483   26.7172 C   0  0  0  0  0  0  0  0  0  0  0  0
    0.2221   -9.8326   17.4055 C   0  0  0  0  0  0  0  0  0  0  0  0
    4.3850   -9.0730   28.6745 C   0  0  0  0  0  0  0  0  0  0  0  0
  1  7  4  0
  1 22  4  0
  2 17  4  0
  2 20  4  0
  2 28  4  0
  3  6  1  0
  3 19  1  0
  4 19  1  0
  4 26  1  0
  5 17  4  0
  5 18  4  0
  6 20  1  0
  6 26  1  0
  7 24  4  0
  8 15  4  0
  8 24  4  0
  9 14  4  0
  9 21  4  0
 10 12  4  0
 10 27  4  0
 11 12  4  0
 11 23  4  0
 13 23  4  0
 13 27  4  0
 14 20  4  0
 15 22  4  0
 16 18  4  0
 16 25  2  0
 16 28  4  0
 21 28  4  0
 24 27  1  0
M  END
$$$$

 Created by Python create_sdf_string function

 28 31  0  0  0  0  0  0  0  0999 V2000
   -1.0054  -13.0622   19.1198 C   0  0  0  0  0  0  0  0  0  0  0  0
    3.1478   -8.5360   28.5161 C   0  0  0  0  0  0  0  0  0  0  0  0
    0.5798   -7.1906   27.9330 C   0  0  0  0  0  0  0  0  0  0  0  0
    0.3978   -5.1561   26.6955 C   0  0  0  0  0  0  0  0  0  0  0  0
    2.3063  -10.0533   30.0125 C   0  0  0  0  0  0  0  0  0  0  0  0
    1.8591   -6.8254   27.4685 N   0  0  0  0  0  0  0  0  0  0  0  0
   -0.2167  -12.1055   18.5568 C   0  0  0  0  0  0  0  0  0  0  0  0
   -2.0661  -10.6994   18.1916 C   0  0  0  0  0  0  0  0  0  0  0  0
    5.2703   -7.5691   27.1123 C   0  0  0  0  0  0  0  0  0  0  0  0
    1.6204   -9.9887   17.2935 C   0  0  0  0  0  0  0  0  0  0  0  0
    1.8931   -7.9265   16.2047 C   0  0  0  0  0  0  0  0  0  0  0  0
    2.4396   -9.0801   16.7132 C   0  0  0  0  0  0  0  0  0  0  0  0
   -0.2575   -8.6234   16.8582 C   0  0  0  0  0  0  0  0  0  0  0  0
    4.0614   -7.0367   27.0106 N   0  0  0  0  0  0  0  0  0  0  0  0
   -2.9133  -11.6279   18.7578 C   0  0  0  0  0  0  0  0  0  0  0  0
    4.5688  -10.1291   29.5758 C   0  0  0  0  0  0  0  0  0  0  0  0
    2.1008   -9.0410   29.1852 N   0  0  0  0  0  0  0  0  0  0  0  0
    3.4829  -10.5697   30.2091 N   0  0  0  0  0  0  0  0  0  0  0  0
   -0.3363   -6.1172   27.5628 C   0  0  0  0  0  0  0  0  0  0  0  0
    3.0331   -7.4400   27.6362 C   0  0  0  0  0  0  0  0  0  0  0  0
    5.4553   -8.5933   27.9644 C   0  0  0  0  0  0  0  0  0  0  0  0
   -2.3870  -12.8440   19.2512 C   0  0  0  0  0  0  0  0  0  0  0  0
    0.5331   -7.6964   16.2751 C   0  0  0  0  0  0  0  0  0  0  0  0
   -0.6740  -10.8737   18.0482 C   0  0  0  0  0  0  0  0  0  0  0  0
    5.6751  -10.5870   29.7637 O   0  0  0  0  0  0  0  0  0  0  0  0
    1.7612   -5.6483   26.7172 C   0  0  0  0  0  0  0  0  0  0  0  0
    0.2221   -9.8326   17.4055 C   0  0  0  0  0  0  0  0  0  0  0  0
    4.3850   -9.0730   28.6745 C   0  0  0  0  0  0  0  0  0  0  0  0
  1  7  4  0
  1 22  4  0
  2 17  4  0
  2 20  4  0
  2 28  4  0
  3  6  1  0
  3 19  1  0
  4 19  1  0
  4 26  1  0
  5 17  4  0
  5 18  4  0
  6 20  1  0
  6 26  1  0
  7 24  4  0
  8 15  4  0
  8 24  4  0
  9 14  4  0
  9 21  4  0
 10 12  4  0
 10 27  4  0
 11 12  4  0
 11 23  4  0
 13 23  4  0
 13 27  4  0
 14 20  4  0
 15 22  4  0
 16 18  4  0
 16 25  2  0
 16 28  4  0
 21 28  4  0
 24 27  1  0
M  END
$$$$

 Created by Python create_sdf_string function

 28 31  0  0  0  0  0  0  0  0999 V2000
   -1.0054  -13.0622   19.1198 C   0  0  0  0  0  0  0  0  0  0  0  0
    3.1478   -8.5360   28.5161 C   0  0  0  0  0  0  0  0  0  0  0  0
    0.5798   -7.1906   27.9330 C   0  0  0  0  0  0  0  0  0  0  0  0
    0.3978   -5.1561   26.6955 C   0  0  0  0  0  0  0  0  0  0  0  0
    2.3063  -10.0533   30.0125 C   0  0  0  0  0  0  0  0  0  0  0  0
    1.8591   -6.8254   27.4685 N   0  0  0  0  0  0  0  0  0  0  0  0
   -0.2167  -12.1055   18.5568 C   0  0  0  0  0  0  0  0  0  0  0  0
   -2.0661  -10.6994   18.1916 C   0  0  0  0  0  0  0  0  0  0  0  0
    5.2703   -7.5691   27.1123 C   0  0  0  0  0  0  0  0  0  0  0  0
    1.6204   -9.9887   17.2935 C   0  0  0  0  0  0  0  0  0  0  0  0
    1.8931   -7.9265   16.2047 C   0  0  0  0  0  0  0  0  0  0  0  0
    2.4396   -9.0801   16.7132 C   0  0  0  0  0  0  0  0  0  0  0  0
   -0.2575   -8.6234   16.8582 C   0  0  0  0  0  0  0  0  0  0  0  0
    4.0614   -7.0367   27.0106 N   0  0  0  0  0  0  0  0  0  0  0  0
   -2.9133  -11.6279   18.7578 C   0  0  0  0  0  0  0  0  0  0  0  0
    4.5688  -10.1291   29.5758 C   0  0  0  0  0  0  0  0  0  0  0  0
    2.1008   -9.0410   29.1852 N   0  0  0  0  0  0  0  0  0  0  0  0
    3.4829  -10.5697   30.2091 N   0  0  0  0  0  0  0  0  0  0  0  0
   -0.3363   -6.1172   27.5628 C   0  0  0  0  0  0  0  0  0  0  0  0
    3.0331   -7.4400   27.6362 C   0  0  0  0  0  0  0  0  0  0  0  0
    5.4553   -8.5933   27.9644 C   0  0  0  0  0  0  0  0  0  0  0  0
   -2.3870  -12.8440   19.2512 C   0  0  0  0  0  0  0  0  0  0  0  0
    0.5331   -7.6964   16.2751 C   0  0  0  0  0  0  0  0  0  0  0  0
   -0.6740  -10.8737   18.0482 C   0  0  0  0  0  0  0  0  0  0  0  0
    5.6751  -10.5870   29.7637 O   0  0  0  0  0  0  0  0  0  0  0  0
    1.7612   -5.6483   26.7172 C   0  0  0  0  0  0  0  0  0  0  0  0
    0.2221   -9.8326   17.4055 C   0  0  0  0  0  0  0  0  0  0  0  0
    4.3850   -9.0730   28.6745 C   0  0  0  0  0  0  0  0  0  0  0  0
  1  7  4  0
  1 22  4  0
  2 17  4  0
  2 20  4  0
  2 28  4  0
  3  6  1  0
  3 19  1  0
  4 19  1  0
  4 26  1  0
  5 17  4  0
  5 18  4  0
  6 20  1  0
  6 26  1  0
  7 24  4  0
  8 15  4  0
  8 24  4  0
  9 14  4  0
  9 21  4  0
 10 12  4  0
 10 27  4  0
 11 12  4  0
 11 23  4  0
 13 23  4  0
 13 27  4  0
 14 20  4  0
 15 22  4  0
 16 18  4  0
 16 25  2  0
 16 28  4  0
 21 28  4  0
 24 27  1  0
M  END
$$$$

 Created by Python create_sdf_string function

 28 31  0  0  0  0  0  0  0  0999 V2000
   -1.0054  -13.0622   19.1198 C   0  0  0  0  0  0  0  0  0  0  0  0
    3.1478   -8.5360   28.5161 C   0  0  0  0  0  0  0  0  0  0  0  0
    0.5798   -7.1906   27.9330 C   0  0  0  0  0  0  0  0  0  0  0  0
    0.3978   -5.1561   26.6955 C   0  0  0  0  0  0  0  0  0  0  0  0
    2.3063  -10.0533   30.0125 C   0  0  0  0  0  0  0  0  0  0  0  0
    1.8591   -6.8254   27.4685 N   0  0  0  0  0  0  0  0  0  0  0  0
   -0.2167  -12.1055   18.5568 C   0  0  0  0  0  0  0  0  0  0  0  0
   -2.0661  -10.6994   18.1916 C   0  0  0  0  0  0  0  0  0  0  0  0
    5.2703   -7.5691   27.1123 C   0  0  0  0  0  0  0  0  0  0  0  0
    1.6204   -9.9887   17.2935 C   0  0  0  0  0  0  0  0  0  0  0  0
    1.8931   -7.9265   16.2047 C   0  0  0  0  0  0  0  0  0  0  0  0
    2.4396   -9.0801   16.7132 C   0  0  0  0  0  0  0  0  0  0  0  0
   -0.2575   -8.6234   16.8582 C   0  0  0  0  0  0  0  0  0  0  0  0
    4.0614   -7.0367   27.0106 N   0  0  0  0  0  0  0  0  0  0  0  0
   -2.9133  -11.6279   18.7578 C   0  0  0  0  0  0  0  0  0  0  0  0
    4.5688  -10.1291   29.5758 C   0  0  0  0  0  0  0  0  0  0  0  0
    2.1008   -9.0410   29.1852 N   0  0  0  0  0  0  0  0  0  0  0  0
    3.4829  -10.5697   30.2091 N   0  0  0  0  0  0  0  0  0  0  0  0
   -0.3363   -6.1172   27.5628 C   0  0  0  0  0  0  0  0  0  0  0  0
    3.0331   -7.4400   27.6362 C   0  0  0  0  0  0  0  0  0  0  0  0
    5.4553   -8.5933   27.9644 C   0  0  0  0  0  0  0  0  0  0  0  0
   -2.3870  -12.8440   19.2512 C   0  0  0  0  0  0  0  0  0  0  0  0
    0.5331   -7.6964   16.2751 C   0  0  0  0  0  0  0  0  0  0  0  0
   -0.6740  -10.8737   18.0482 C   0  0  0  0  0  0  0  0  0  0  0  0
    5.6751  -10.5870   29.7637 O   0  0  0  0  0  0  0  0  0  0  0  0
    1.7612   -5.6483   26.7172 C   0  0  0  0  0  0  0  0  0  0  0  0
    0.2221   -9.8326   17.4055 C   0  0  0  0  0  0  0  0  0  0  0  0
    4.3850   -9.0730   28.6745 C   0  0  0  0  0  0  0  0  0  0  0  0
  1  7  4  0
  1 22  4  0
  2 17  4  0
  2 20  4  0
  2 28  4  0
  3  6  1  0
  3 19  1  0
  4 19  1  0
  4 26  1  0
  5 17  4  0
  5 18  4  0
  6 20  1  0
  6 26  1  0
  7 24  4  0
  8 15  4  0
  8 24  4  0
  9 14  4  0
  9 21  4  0
 10 12  4  0
 10 27  4  0
 11 12  4  0
 11 23  4  0
 13 23  4  0
 13 27  4  0
 14 20  4  0
 15 22  4  0
 16 18  4  0
 16 25  2  0
 16 28  4  0
 21 28  4  0
 24 27  1  0
M  END
$$$$

 Created by Python create_sdf_string function

 28 31  0  0  0  0  0  0  0  0999 V2000
   -1.0054  -13.0622   19.1198 C   0  0  0  0  0  0  0  0  0  0  0  0
    3.1478   -8.5360   28.5161 C   0  0  0  0  0  0  0  0  0  0  0  0
    0.5798   -7.1906   27.9330 C   0  0  0  0  0  0  0  0  0  0  0  0
    0.3978   -5.1561   26.6955 C   0  0  0  0  0  0  0  0  0  0  0  0
    2.3063  -10.0533   30.0125 C   0  0  0  0  0  0  0  0  0  0  0  0
    1.8591   -6.8254   27.4685 N   0  0  0  0  0  0  0  0  0  0  0  0
   -0.2167  -12.1055   18.5568 C   0  0  0  0  0  0  0  0  0  0  0  0
   -2.0661  -10.6994   18.1916 C   0  0  0  0  0  0  0  0  0  0  0  0
    5.2703   -7.5691   27.1123 C   0  0  0  0  0  0  0  0  0  0  0  0
    1.6204   -9.9887   17.2935 C   0  0  0  0  0  0  0  0  0  0  0  0
    1.8931   -7.9265   16.2047 C   0  0  0  0  0  0  0  0  0  0  0  0
    2.4396   -9.0801   16.7132 C   0  0  0  0  0  0  0  0  0  0  0  0
   -0.2575   -8.6234   16.8582 C   0  0  0  0  0  0  0  0  0  0  0  0
    4.0614   -7.0367   27.0106 N   0  0  0  0  0  0  0  0  0  0  0  0
   -2.9133  -11.6279   18.7578 C   0  0  0  0  0  0  0  0  0  0  0  0
    4.5688  -10.1291   29.5758 C   0  0  0  0  0  0  0  0  0  0  0  0
    2.1008   -9.0410   29.1852 N   0  0  0  0  0  0  0  0  0  0  0  0
    3.4829  -10.5697   30.2091 N   0  0  0  0  0  0  0  0  0  0  0  0
   -0.3363   -6.1172   27.5628 C   0  0  0  0  0  0  0  0  0  0  0  0
    3.0331   -7.4400   27.6362 C   0  0  0  0  0  0  0  0  0  0  0  0
    5.4553   -8.5933   27.9644 C   0  0  0  0  0  0  0  0  0  0  0  0
   -2.3870  -12.8440   19.2512 C   0  0  0  0  0  0  0  0  0  0  0  0
    0.5331   -7.6964   16.2751 C   0  0  0  0  0  0  0  0  0  0  0  0
   -0.6740  -10.8737   18.0482 C   0  0  0  0  0  0  0  0  0  0  0  0
    5.6751  -10.5870   29.7637 O   0  0  0  0  0  0  0  0  0  0  0  0
    1.7612   -5.6483   26.7172 C   0  0  0  0  0  0  0  0  0  0  0  0
    0.2221   -9.8326   17.4055 C   0  0  0  0  0  0  0  0  0  0  0  0
    4.3850   -9.0730   28.6745 C   0  0  0  0  0  0  0  0  0  0  0  0
  1  7  4  0
  1 22  4  0
  2 17  4  0
  2 20  4  0
  2 28  4  0
  3  6  1  0
  3 19  1  0
  4 19  1  0
  4 26  1  0
  5 17  4  0
  5 18  4  0
  6 20  1  0
  6 26  1  0
  7 24  4  0
  8 15  4  0
  8 24  4  0
  9 14  4  0
  9 21  4  0
 10 12  4  0
 10 27  4  0
 11 12  4  0
 11 23  4  0
 13 23  4  0
 13 27  4  0
 14 20  4  0
 15 22  4  0
 16 18  4  0
 16 25  2  0
 16 28  4  0
 21 28  4  0
 24 27  1  0
M  END
$$$$

 Created by Python create_sdf_string function

 28 31  0  0  0  0  0  0  0  0999 V2000
   -1.0054  -13.0622   19.1198 C   0  0  0  0  0  0  0  0  0  0  0  0
    3.1478   -8.5360   28.5161 C   0  0  0  0  0  0  0  0  0  0  0  0
    0.5798   -7.1906   27.9330 C   0  0  0  0  0  0  0  0  0  0  0  0
    0.3978   -5.1561   26.6955 C   0  0  0  0  0  0  0  0  0  0  0  0
    2.3063  -10.0533   30.0125 C   0  0  0  0  0  0  0  0  0  0  0  0
    1.8591   -6.8254   27.4685 N   0  0  0  0  0  0  0  0  0  0  0  0
   -0.2167  -12.1055   18.5568 C   0  0  0  0  0  0  0  0  0  0  0  0
   -2.0661  -10.6994   18.1916 C   0  0  0  0  0  0  0  0  0  0  0  0
    5.2703   -7.5691   27.1123 C   0  0  0  0  0  0  0  0  0  0  0  0
    1.6204   -9.9887   17.2935 C   0  0  0  0  0  0  0  0  0  0  0  0
    1.8931   -7.9265   16.2047 C   0  0  0  0  0  0  0  0  0  0  0  0
    2.4396   -9.0801   16.7132 C   0  0  0  0  0  0  0  0  0  0  0  0
   -0.2575   -8.6234   16.8582 C   0  0  0  0  0  0  0  0  0  0  0  0
    4.0614   -7.0367   27.0106 N   0  0  0  0  0  0  0  0  0  0  0  0
   -2.9133  -11.6279   18.7578 C   0  0  0  0  0  0  0  0  0  0  0  0
    4.5688  -10.1291   29.5758 C   0  0  0  0  0  0  0  0  0  0  0  0
    2.1008   -9.0410   29.1852 N   0  0  0  0  0  0  0  0  0  0  0  0
    3.4829  -10.5697   30.2091 N   0  0  0  0  0  0  0  0  0  0  0  0
   -0.3363   -6.1172   27.5628 C   0  0  0  0  0  0  0  0  0  0  0  0
    3.0331   -7.4400   27.6362 C   0  0  0  0  0  0  0  0  0  0  0  0
    5.4553   -8.5933   27.9644 C   0  0  0  0  0  0  0  0  0  0  0  0
   -2.3870  -12.8440   19.2512 C   0  0  0  0  0  0  0  0  0  0  0  0
    0.5331   -7.6964   16.2751 C   0  0  0  0  0  0  0  0  0  0  0  0
   -0.6740  -10.8737   18.0482 C   0  0  0  0  0  0  0  0  0  0  0  0
    5.6751  -10.5870   29.7637 O   0  0  0  0  0  0  0  0  0  0  0  0
    1.7612   -5.6483   26.7172 C   0  0  0  0  0  0  0  0  0  0  0  0
    0.2221   -9.8326   17.4055 C   0  0  0  0  0  0  0  0  0  0  0  0
    4.3850   -9.0730   28.6745 C   0  0  0  0  0  0  0  0  0  0  0  0
  1  7  4  0
  1 22  4  0
  2 17  4  0
  2 20  4  0
  2 28  4  0
  3  6  1  0
  3 19  1  0
  4 19  1  0
  4 26  1  0
  5 17  4  0
  5 18  4  0
  6 20  1  0
  6 26  1  0
  7 24  4  0
  8 15  4  0
  8 24  4  0
  9 14  4  0
  9 21  4  0
 10 12  4  0
 10 27  4  0
 11 12  4  0
 11 23  4  0
 13 23  4  0
 13 27  4  0
 14 20  4  0
 15 22  4  0
 16 18  4  0
 16 25  2  0
 16 28  4  0
 21 28  4  0
 24 27  1  0
M  END
$$$$

 Created by Python create_sdf_string function

 28 31  0  0  0  0  0  0  0  0999 V2000
   -1.0054  -13.0622   19.1198 C   0  0  0  0  0  0  0  0  0  0  0  0
    3.1478   -8.5360   28.5161 C   0  0  0  0  0  0  0  0  0  0  0  0
    0.5798   -7.1906   27.9330 C   0  0  0  0  0  0  0  0  0  0  0  0
    0.3978   -5.1561   26.6955 C   0  0  0  0  0  0  0  0  0  0  0  0
    2.3063  -10.0533   30.0125 C   0  0  0  0  0  0  0  0  0  0  0  0
    1.8591   -6.8254   27.4685 N   0  0  0  0  0  0  0  0  0  0  0  0
   -0.2167  -12.1055   18.5568 C   0  0  0  0  0  0  0  0  0  0  0  0
   -2.0661  -10.6994   18.1916 C   0  0  0  0  0  0  0  0  0  0  0  0
    5.2703   -7.5691   27.1123 C   0  0  0  0  0  0  0  0  0  0  0  0
    1.6204   -9.9887   17.2935 C   0  0  0  0  0  0  0  0  0  0  0  0
    1.8931   -7.9265   16.2047 C   0  0  0  0  0  0  0  0  0  0  0  0
    2.4396   -9.0801   16.7132 C   0  0  0  0  0  0  0  0  0  0  0  0
   -0.2575   -8.6234   16.8582 C   0  0  0  0  0  0  0  0  0  0  0  0
    4.0614   -7.0367   27.0106 N   0  0  0  0  0  0  0  0  0  0  0  0
   -2.9133  -11.6279   18.7578 C   0  0  0  0  0  0  0  0  0  0  0  0
    4.5688  -10.1291   29.5758 C   0  0  0  0  0  0  0  0  0  0  0  0
    2.1008   -9.0410   29.1852 N   0  0  0  0  0  0  0  0  0  0  0  0
    3.4829  -10.5697   30.2091 N   0  0  0  0  0  0  0  0  0  0  0  0
   -0.3363   -6.1172   27.5628 C   0  0  0  0  0  0  0  0  0  0  0  0
    3.0331   -7.4400   27.6362 C   0  0  0  0  0  0  0  0  0  0  0  0
    5.4553   -8.5933   27.9644 C   0  0  0  0  0  0  0  0  0  0  0  0
   -2.3870  -12.8440   19.2512 C   0  0  0  0  0  0  0  0  0  0  0  0
    0.5331   -7.6964   16.2751 C   0  0  0  0  0  0  0  0  0  0  0  0
   -0.6740  -10.8737   18.0482 C   0  0  0  0  0  0  0  0  0  0  0  0
    5.6751  -10.5870   29.7637 O   0  0  0  0  0  0  0  0  0  0  0  0
    1.7612   -5.6483   26.7172 C   0  0  0  0  0  0  0  0  0  0  0  0
    0.2221   -9.8326   17.4055 C   0  0  0  0  0  0  0  0  0  0  0  0
    4.3850   -9.0730   28.6745 C   0  0  0  0  0  0  0  0  0  0  0  0
  1  7  4  0
  1 22  4  0
  2 17  4  0
  2 20  4  0
  2 28  4  0
  3  6  1  0
  3 19  1  0
  4 19  1  0
  4 26  1  0
  5 17  4  0
  5 18  4  0
  6 20  1  0
  6 26  1  0
  7 24  4  0
  8 15  4  0
  8 24  4  0
  9 14  4  0
  9 21  4  0
 10 12  4  0
 10 27  4  0
 11 12  4  0
 11 23  4  0
 13 23  4  0
 13 27  4  0
 14 20  4  0
 15 22  4  0
 16 18  4  0
 16 25  2  0
 16 28  4  0
 21 28  4  0
 24 27  1  0
M  END
$$$$

 Created by Python create_sdf_string function

 28 31  0  0  0  0  0  0  0  0999 V2000
   -1.0054  -13.0622   19.1198 C   0  0  0  0  0  0  0  0  0  0  0  0
    3.1478   -8.5360   28.5161 C   0  0  0  0  0  0  0  0  0  0  0  0
    0.5798   -7.1906   27.9330 C   0  0  0  0  0  0  0  0  0  0  0  0
    0.3978   -5.1561   26.6955 C   0  0  0  0  0  0  0  0  0  0  0  0
    2.3063  -10.0533   30.0125 C   0  0  0  0  0  0  0  0  0  0  0  0
    1.8591   -6.8254   27.4685 N   0  0  0  0  0  0  0  0  0  0  0  0
   -0.2167  -12.1055   18.5568 C   0  0  0  0  0  0  0  0  0  0  0  0
   -2.0661  -10.6994   18.1916 C   0  0  0  0  0  0  0  0  0  0  0  0
    5.2703   -7.5691   27.1123 C   0  0  0  0  0  0  0  0  0  0  0  0
    1.6204   -9.9887   17.2935 C   0  0  0  0  0  0  0  0  0  0  0  0
    1.8931   -7.9265   16.2047 C   0  0  0  0  0  0  0  0  0  0  0  0
    2.4396   -9.0801   16.7132 C   0  0  0  0  0  0  0  0  0  0  0  0
   -0.2575   -8.6234   16.8582 C   0  0  0  0  0  0  0  0  0  0  0  0
    4.0614   -7.0367   27.0106 N   0  0  0  0  0  0  0  0  0  0  0  0
   -2.9133  -11.6279   18.7578 C   0  0  0  0  0  0  0  0  0  0  0  0
    4.5688  -10.1291   29.5758 C   0  0  0  0  0  0  0  0  0  0  0  0
    2.1008   -9.0410   29.1852 N   0  0  0  0  0  0  0  0  0  0  0  0
    3.4829  -10.5697   30.2091 N   0  0  0  0  0  0  0  0  0  0  0  0
   -0.3363   -6.1172   27.5628 C   0  0  0  0  0  0  0  0  0  0  0  0
    3.0331   -7.4400   27.6362 C   0  0  0  0  0  0  0  0  0  0  0  0
    5.4553   -8.5933   27.9644 C   0  0  0  0  0  0  0  0  0  0  0  0
   -2.3870  -12.8440   19.2512 C   0  0  0  0  0  0  0  0  0  0  0  0
    0.5331   -7.6964   16.2751 C   0  0  0  0  0  0  0  0  0  0  0  0
   -0.6740  -10.8737   18.0482 C   0  0  0  0  0  0  0  0  0  0  0  0
    5.6751  -10.5870   29.7637 O   0  0  0  0  0  0  0  0  0  0  0  0
    1.7612   -5.6483   26.7172 C   0  0  0  0  0  0  0  0  0  0  0  0
    0.2221   -9.8326   17.4055 C   0  0  0  0  0  0  0  0  0  0  0  0
    4.3850   -9.0730   28.6745 C   0  0  0  0  0  0  0  0  0  0  0  0
  1  7  4  0
  1 22  4  0
  2 17  4  0
  2 20  4  0
  2 28  4  0
  3  6  1  0
  3 19  1  0
  4 19  1  0
  4 26  1  0
  5 17  4  0
  5 18  4  0
  6 20  1  0
  6 26  1  0
  7 24  4  0
  8 15  4  0
  8 24  4  0
  9 14  4  0
  9 21  4  0
 10 12  4  0
 10 27  4  0
 11 12  4  0
 11 23  4  0
 13 23  4  0
 13 27  4  0
 14 20  4  0
 15 22  4  0
 16 18  4  0
 16 25  2  0
 16 28  4  0
 21 28  4  0
 24 27  1  0
M  END
$$$$

 Created by Python create_sdf_string function

 28 31  0  0  0  0  0  0  0  0999 V2000
   -1.0054  -13.0622   19.1198 C   0  0  0  0  0  0  0  0  0  0  0  0
    3.1478   -8.5360   28.5161 C   0  0  0  0  0  0  0  0  0  0  0  0
    0.5798   -7.1906   27.9330 C   0  0  0  0  0  0  0  0  0  0  0  0
    0.3978   -5.1561   26.6955 C   0  0  0  0  0  0  0  0  0  0  0  0
    2.3063  -10.0533   30.0125 C   0  0  0  0  0  0  0  0  0  0  0  0
    1.8591   -6.8254   27.4685 N   0  0  0  0  0  0  0  0  0  0  0  0
   -0.2167  -12.1055   18.5568 C   0  0  0  0  0  0  0  0  0  0  0  0
   -2.0661  -10.6994   18.1916 C   0  0  0  0  0  0  0  0  0  0  0  0
    5.2703   -7.5691   27.1123 C   0  0  0  0  0  0  0  0  0  0  0  0
    1.6204   -9.9887   17.2935 C   0  0  0  0  0  0  0  0  0  0  0  0
    1.8931   -7.9265   16.2047 C   0  0  0  0  0  0  0  0  0  0  0  0
    2.4396   -9.0801   16.7132 C   0  0  0  0  0  0  0  0  0  0  0  0
   -0.2575   -8.6234   16.8582 C   0  0  0  0  0  0  0  0  0  0  0  0
    4.0614   -7.0367   27.0106 N   0  0  0  0  0  0  0  0  0  0  0  0
   -2.9133  -11.6279   18.7578 C   0  0  0  0  0  0  0  0  0  0  0  0
    4.5688  -10.1291   29.5758 C   0  0  0  0  0  0  0  0  0  0  0  0
    2.1008   -9.0410   29.1852 N   0  0  0  0  0  0  0  0  0  0  0  0
    3.4829  -10.5697   30.2091 N   0  0  0  0  0  0  0  0  0  0  0  0
   -0.3363   -6.1172   27.5628 C   0  0  0  0  0  0  0  0  0  0  0  0
    3.0331   -7.4400   27.6362 C   0  0  0  0  0  0  0  0  0  0  0  0
    5.4553   -8.5933   27.9644 C   0  0  0  0  0  0  0  0  0  0  0  0
   -2.3870  -12.8440   19.2512 C   0  0  0  0  0  0  0  0  0  0  0  0
    0.5331   -7.6964   16.2751 C   0  0  0  0  0  0  0  0  0  0  0  0
   -0.6740  -10.8737   18.0482 C   0  0  0  0  0  0  0  0  0  0  0  0
    5.6751  -10.5870   29.7637 O   0  0  0  0  0  0  0  0  0  0  0  0
    1.7612   -5.6483   26.7172 C   0  0  0  0  0  0  0  0  0  0  0  0
    0.2221   -9.8326   17.4055 C   0  0  0  0  0  0  0  0  0  0  0  0
    4.3850   -9.0730   28.6745 C   0  0  0  0  0  0  0  0  0  0  0  0
  1  7  4  0
  1 22  4  0
  2 17  4  0
  2 20  4  0
  2 28  4  0
  3  6  1  0
  3 19  1  0
  4 19  1  0
  4 26  1  0
  5 17  4  0
  5 18  4  0
  6 20  1  0
  6 26  1  0
  7 24  4  0
  8 15  4  0
  8 24  4  0
  9 14  4  0
  9 21  4  0
 10 12  4  0
 10 27  4  0
 11 12  4  0
 11 23  4  0
 13 23  4  0
 13 27  4  0
 14 20  4  0
 15 22  4  0
 16 18  4  0
 16 25  2  0
 16 28  4  0
 21 28  4  0
 24 27  1  0
M  END
$$$$

 Created by Python create_sdf_string function

 28 31  0  0  0  0  0  0  0  0999 V2000
   -1.0054  -13.0622   19.1198 C   0  0  0  0  0  0  0  0  0  0  0  0
    3.1478   -8.5360   28.5161 C   0  0  0  0  0  0  0  0  0  0  0  0
    0.5798   -7.1906   27.9330 C   0  0  0  0  0  0  0  0  0  0  0  0
    0.3978   -5.1561   26.6955 C   0  0  0  0  0  0  0  0  0  0  0  0
    2.3063  -10.0533   30.0125 C   0  0  0  0  0  0  0  0  0  0  0  0
    1.8591   -6.8254   27.4685 N   0  0  0  0  0  0  0  0  0  0  0  0
   -0.2167  -12.1055   18.5568 C   0  0  0  0  0  0  0  0  0  0  0  0
   -2.0661  -10.6994   18.1916 C   0  0  0  0  0  0  0  0  0  0  0  0
    5.2703   -7.5691   27.1123 C   0  0  0  0  0  0  0  0  0  0  0  0
    1.6204   -9.9887   17.2935 C   0  0  0  0  0  0  0  0  0  0  0  0
    1.8931   -7.9265   16.2047 C   0  0  0  0  0  0  0  0  0  0  0  0
    2.4396   -9.0801   16.7132 C   0  0  0  0  0  0  0  0  0  0  0  0
   -0.2575   -8.6234   16.8582 C   0  0  0  0  0  0  0  0  0  0  0  0
    4.0614   -7.0367   27.0106 N   0  0  0  0  0  0  0  0  0  0  0  0
   -2.9133  -11.6279   18.7578 C   0  0  0  0  0  0  0  0  0  0  0  0
    4.5688  -10.1291   29.5758 C   0  0  0  0  0  0  0  0  0  0  0  0
    2.1008   -9.0410   29.1852 N   0  0  0  0  0  0  0  0  0  0  0  0
    3.4829  -10.5697   30.2091 N   0  0  0  0  0  0  0  0  0  0  0  0
   -0.3363   -6.1172   27.5628 C   0  0  0  0  0  0  0  0  0  0  0  0
    3.0331   -7.4400   27.6362 C   0  0  0  0  0  0  0  0  0  0  0  0
    5.4553   -8.5933   27.9644 C   0  0  0  0  0  0  0  0  0  0  0  0
   -2.3870  -12.8440   19.2512 C   0  0  0  0  0  0  0  0  0  0  0  0
    0.5331   -7.6964   16.2751 C   0  0  0  0  0  0  0  0  0  0  0  0
   -0.6740  -10.8737   18.0482 C   0  0  0  0  0  0  0  0  0  0  0  0
    5.6751  -10.5870   29.7637 O   0  0  0  0  0  0  0  0  0  0  0  0
    1.7612   -5.6483   26.7172 C   0  0  0  0  0  0  0  0  0  0  0  0
    0.2221   -9.8326   17.4055 C   0  0  0  0  0  0  0  0  0  0  0  0
    4.3850   -9.0730   28.6745 C   0  0  0  0  0  0  0  0  0  0  0  0
  1  7  4  0
  1 22  4  0
  2 17  4  0
  2 20  4  0
  2 28  4  0
  3  6  1  0
  3 19  1  0
  4 19  1  0
  4 26  1  0
  5 17  4  0
  5 18  4  0
  6 20  1  0
  6 26  1  0
  7 24  4  0
  8 15  4  0
  8 24  4  0
  9 14  4  0
  9 21  4  0
 10 12  4  0
 10 27  4  0
 11 12  4  0
 11 23  4  0
 13 23  4  0
 13 27  4  0
 14 20  4  0
 15 22  4  0
 16 18  4  0
 16 25  2  0
 16 28  4  0
 21 28  4  0
 24 27  1  0
M  END
$$$$

 Created by Python create_sdf_string function

 28 31  0  0  0  0  0  0  0  0999 V2000
   -1.0054  -13.0622   19.1198 C   0  0  0  0  0  0  0  0  0  0  0  0
    3.1478   -8.5360   28.5161 C   0  0  0  0  0  0  0  0  0  0  0  0
    0.5798   -7.1906   27.9330 C   0  0  0  0  0  0  0  0  0  0  0  0
    0.3978   -5.1561   26.6955 C   0  0  0  0  0  0  0  0  0  0  0  0
    2.3063  -10.0533   30.0125 C   0  0  0  0  0  0  0  0  0  0  0  0
    1.8591   -6.8254   27.4685 N   0  0  0  0  0  0  0  0  0  0  0  0
   -0.2167  -12.1055   18.5568 C   0  0  0  0  0  0  0  0  0  0  0  0
   -2.0661  -10.6994   18.1916 C   0  0  0  0  0  0  0  0  0  0  0  0
    5.2703   -7.5691   27.1123 C   0  0  0  0  0  0  0  0  0  0  0  0
    1.6204   -9.9887   17.2935 C   0  0  0  0  0  0  0  0  0  0  0  0
    1.8931   -7.9265   16.2047 C   0  0  0  0  0  0  0  0  0  0  0  0
    2.4396   -9.0801   16.7132 C   0  0  0  0  0  0  0  0  0  0  0  0
   -0.2575   -8.6234   16.8582 C   0  0  0  0  0  0  0  0  0  0  0  0
    4.0614   -7.0367   27.0106 N   0  0  0  0  0  0  0  0  0  0  0  0
   -2.9133  -11.6279   18.7578 C   0  0  0  0  0  0  0  0  0  0  0  0
    4.5688  -10.1291   29.5758 C   0  0  0  0  0  0  0  0  0  0  0  0
    2.1008   -9.0410   29.1852 N   0  0  0  0  0  0  0  0  0  0  0  0
    3.4829  -10.5697   30.2091 N   0  0  0  0  0  0  0  0  0  0  0  0
   -0.3363   -6.1172   27.5628 C   0  0  0  0  0  0  0  0  0  0  0  0
    3.0331   -7.4400   27.6362 C   0  0  0  0  0  0  0  0  0  0  0  0
    5.4553   -8.5933   27.9644 C   0  0  0  0  0  0  0  0  0  0  0  0
   -2.3870  -12.8440   19.2512 C   0  0  0  0  0  0  0  0  0  0  0  0
    0.5331   -7.6964   16.2751 C   0  0  0  0  0  0  0  0  0  0  0  0
   -0.6740  -10.8737   18.0482 C   0  0  0  0  0  0  0  0  0  0  0  0
    5.6751  -10.5870   29.7637 O   0  0  0  0  0  0  0  0  0  0  0  0
    1.7612   -5.6483   26.7172 C   0  0  0  0  0  0  0  0  0  0  0  0
    0.2221   -9.8326   17.4055 C   0  0  0  0  0  0  0  0  0  0  0  0
    4.3850   -9.0730   28.6745 C   0  0  0  0  0  0  0  0  0  0  0  0
  1  7  4  0
  1 22  4  0
  2 17  4  0
  2 20  4  0
  2 28  4  0
  3  6  1  0
  3 19  1  0
  4 19  1  0
  4 26  1  0
  5 17  4  0
  5 18  4  0
  6 20  1  0
  6 26  1  0
  7 24  4  0
  8 15  4  0
  8 24  4  0
  9 14  4  0
  9 21  4  0
 10 12  4  0
 10 27  4  0
 11 12  4  0
 11 23  4  0
 13 23  4  0
 13 27  4  0
 14 20  4  0
 15 22  4  0
 16 18  4  0
 16 25  2  0
 16 28  4  0
 21 28  4  0
 24 27  1  0
M  END
$$$$

 Created by Python create_sdf_string function

 28 31  0  0  0  0  0  0  0  0999 V2000
   -1.0054  -13.0622   19.1198 C   0  0  0  0  0  0  0  0  0  0  0  0
    3.1478   -8.5360   28.5161 C   0  0  0  0  0  0  0  0  0  0  0  0
    0.5798   -7.1906   27.9330 C   0  0  0  0  0  0  0  0  0  0  0  0
    0.3978   -5.1561   26.6955 C   0  0  0  0  0  0  0  0  0  0  0  0
    2.3063  -10.0533   30.0125 C   0  0  0  0  0  0  0  0  0  0  0  0
    1.8591   -6.8254   27.4685 N   0  0  0  0  0  0  0  0  0  0  0  0
   -0.2167  -12.1055   18.5568 C   0  0  0  0  0  0  0  0  0  0  0  0
   -2.0661  -10.6994   18.1916 C   0  0  0  0  0  0  0  0  0  0  0  0
    5.2703   -7.5691   27.1123 C   0  0  0  0  0  0  0  0  0  0  0  0
    1.6204   -9.9887   17.2935 C   0  0  0  0  0  0  0  0  0  0  0  0
    1.8931   -7.9265   16.2047 C   0  0  0  0  0  0  0  0  0  0  0  0
    2.4396   -9.0801   16.7132 C   0  0  0  0  0  0  0  0  0  0  0  0
   -0.2575   -8.6234   16.8582 C   0  0  0  0  0  0  0  0  0  0  0  0
    4.0614   -7.0367   27.0106 N   0  0  0  0  0  0  0  0  0  0  0  0
   -2.9133  -11.6279   18.7578 C   0  0  0  0  0  0  0  0  0  0  0  0
    4.5688  -10.1291   29.5758 C   0  0  0  0  0  0  0  0  0  0  0  0
    2.1008   -9.0410   29.1852 N   0  0  0  0  0  0  0  0  0  0  0  0
    3.4829  -10.5697   30.2091 N   0  0  0  0  0  0  0  0  0  0  0  0
   -0.3363   -6.1172   27.5628 C   0  0  0  0  0  0  0  0  0  0  0  0
    3.0331   -7.4400   27.6362 C   0  0  0  0  0  0  0  0  0  0  0  0
    5.4553   -8.5933   27.9644 C   0  0  0  0  0  0  0  0  0  0  0  0
   -2.3870  -12.8440   19.2512 C   0  0  0  0  0  0  0  0  0  0  0  0
    0.5331   -7.6964   16.2751 C   0  0  0  0  0  0  0  0  0  0  0  0
   -0.6740  -10.8737   18.0482 C   0  0  0  0  0  0  0  0  0  0  0  0
    5.6751  -10.5870   29.7637 O   0  0  0  0  0  0  0  0  0  0  0  0
    1.7612   -5.6483   26.7172 C   0  0  0  0  0  0  0  0  0  0  0  0
    0.2221   -9.8326   17.4055 C   0  0  0  0  0  0  0  0  0  0  0  0
    4.3850   -9.0730   28.6745 C   0  0  0  0  0  0  0  0  0  0  0  0
  1  7  4  0
  1 22  4  0
  2 17  4  0
  2 20  4  0
  2 28  4  0
  3  6  1  0
  3 19  1  0
  4 19  1  0
  4 26  1  0
  5 17  4  0
  5 18  4  0
  6 20  1  0
  6 26  1  0
  7 24  4  0
  8 15  4  0
  8 24  4  0
  9 14  4  0
  9 21  4  0
 10 12  4  0
 10 27  4  0
 11 12  4  0
 11 23  4  0
 13 23  4  0
 13 27  4  0
 14 20  4  0
 15 22  4  0
 16 18  4  0
 16 25  2  0
 16 28  4  0
 21 28  4  0
 24 27  1  0
M  END
$$$$

 Created by Python create_sdf_string function

 28 31  0  0  0  0  0  0  0  0999 V2000
   -1.0054  -13.0622   19.1198 C   0  0  0  0  0  0  0  0  0  0  0  0
    3.1478   -8.5360   28.5161 C   0  0  0  0  0  0  0  0  0  0  0  0
    0.5798   -7.1906   27.9330 C   0  0  0  0  0  0  0  0  0  0  0  0
    0.3978   -5.1561   26.6955 C   0  0  0  0  0  0  0  0  0  0  0  0
    2.3063  -10.0533   30.0125 C   0  0  0  0  0  0  0  0  0  0  0  0
    1.8591   -6.8254   27.4685 N   0  0  0  0  0  0  0  0  0  0  0  0
   -0.2167  -12.1055   18.5568 C   0  0  0  0  0  0  0  0  0  0  0  0
   -2.0661  -10.6994   18.1916 C   0  0  0  0  0  0  0  0  0  0  0  0
    5.2703   -7.5691   27.1123 C   0  0  0  0  0  0  0  0  0  0  0  0
    1.6204   -9.9887   17.2935 C   0  0  0  0  0  0  0  0  0  0  0  0
    1.8931   -7.9265   16.2047 C   0  0  0  0  0  0  0  0  0  0  0  0
    2.4396   -9.0801   16.7132 C   0  0  0  0  0  0  0  0  0  0  0  0
   -0.2575   -8.6234   16.8582 C   0  0  0  0  0  0  0  0  0  0  0  0
    4.0614   -7.0367   27.0106 N   0  0  0  0  0  0  0  0  0  0  0  0
   -2.9133  -11.6279   18.7578 C   0  0  0  0  0  0  0  0  0  0  0  0
    4.5688  -10.1291   29.5758 C   0  0  0  0  0  0  0  0  0  0  0  0
    2.1008   -9.0410   29.1852 N   0  0  0  0  0  0  0  0  0  0  0  0
    3.4829  -10.5697   30.2091 N   0  0  0  0  0  0  0  0  0  0  0  0
   -0.3363   -6.1172   27.5628 C   0  0  0  0  0  0  0  0  0  0  0  0
    3.0331   -7.4400   27.6362 C   0  0  0  0  0  0  0  0  0  0  0  0
    5.4553   -8.5933   27.9644 C   0  0  0  0  0  0  0  0  0  0  0  0
   -2.3870  -12.8440   19.2512 C   0  0  0  0  0  0  0  0  0  0  0  0
    0.5331   -7.6964   16.2751 C   0  0  0  0  0  0  0  0  0  0  0  0
   -0.6740  -10.8737   18.0482 C   0  0  0  0  0  0  0  0  0  0  0  0
    5.6751  -10.5870   29.7637 O   0  0  0  0  0  0  0  0  0  0  0  0
    1.7612   -5.6483   26.7172 C   0  0  0  0  0  0  0  0  0  0  0  0
    0.2221   -9.8326   17.4055 C   0  0  0  0  0  0  0  0  0  0  0  0
    4.3850   -9.0730   28.6745 C   0  0  0  0  0  0  0  0  0  0  0  0
  1  7  4  0
  1 22  4  0
  2 17  4  0
  2 20  4  0
  2 28  4  0
  3  6  1  0
  3 19  1  0
  4 19  1  0
  4 26  1  0
  5 17  4  0
  5 18  4  0
  6 20  1  0
  6 26  1  0
  7 24  4  0
  8 15  4  0
  8 24  4  0
  9 14  4  0
  9 21  4  0
 10 12  4  0
 10 27  4  0
 11 12  4  0
 11 23  4  0
 13 23  4  0
 13 27  4  0
 14 20  4  0
 15 22  4  0
 16 18  4  0
 16 25  2  0
 16 28  4  0
 21 28  4  0
 24 27  1  0
M  END
$$$$

 Created by Python create_sdf_string function

 28 31  0  0  0  0  0  0  0  0999 V2000
   -1.0054  -13.0622   19.1198 C   0  0  0  0  0  0  0  0  0  0  0  0
    3.1478   -8.5360   28.5161 C   0  0  0  0  0  0  0  0  0  0  0  0
    0.5798   -7.1906   27.9330 C   0  0  0  0  0  0  0  0  0  0  0  0
    0.3978   -5.1561   26.6955 C   0  0  0  0  0  0  0  0  0  0  0  0
    2.3063  -10.0533   30.0125 C   0  0  0  0  0  0  0  0  0  0  0  0
    1.8591   -6.8254   27.4685 N   0  0  0  0  0  0  0  0  0  0  0  0
   -0.2167  -12.1055   18.5568 C   0  0  0  0  0  0  0  0  0  0  0  0
   -2.0661  -10.6994   18.1916 C   0  0  0  0  0  0  0  0  0  0  0  0
    5.2703   -7.5691   27.1123 C   0  0  0  0  0  0  0  0  0  0  0  0
    1.6204   -9.9887   17.2935 C   0  0  0  0  0  0  0  0  0  0  0  0
    1.8931   -7.9265   16.2047 C   0  0  0  0  0  0  0  0  0  0  0  0
    2.4396   -9.0801   16.7132 C   0  0  0  0  0  0  0  0  0  0  0  0
   -0.2575   -8.6234   16.8582 C   0  0  0  0  0  0  0  0  0  0  0  0
    4.0614   -7.0367   27.0106 N   0  0  0  0  0  0  0  0  0  0  0  0
   -2.9133  -11.6279   18.7578 C   0  0  0  0  0  0  0  0  0  0  0  0
    4.5688  -10.1291   29.5758 C   0  0  0  0  0  0  0  0  0  0  0  0
    2.1008   -9.0410   29.1852 N   0  0  0  0  0  0  0  0  0  0  0  0
    3.4829  -10.5697   30.2091 N   0  0  0  0  0  0  0  0  0  0  0  0
   -0.3363   -6.1172   27.5628 C   0  0  0  0  0  0  0  0  0  0  0  0
    3.0331   -7.4400   27.6362 C   0  0  0  0  0  0  0  0  0  0  0  0
    5.4553   -8.5933   27.9644 C   0  0  0  0  0  0  0  0  0  0  0  0
   -2.3870  -12.8440   19.2512 C   0  0  0  0  0  0  0  0  0  0  0  0
    0.5331   -7.6964   16.2751 C   0  0  0  0  0  0  0  0  0  0  0  0
   -0.6740  -10.8737   18.0482 C   0  0  0  0  0  0  0  0  0  0  0  0
    5.6751  -10.5870   29.7637 O   0  0  0  0  0  0  0  0  0  0  0  0
    1.7612   -5.6483   26.7172 C   0  0  0  0  0  0  0  0  0  0  0  0
    0.2221   -9.8326   17.4055 C   0  0  0  0  0  0  0  0  0  0  0  0
    4.3850   -9.0730   28.6745 C   0  0  0  0  0  0  0  0  0  0  0  0
  1  7  4  0
  1 22  4  0
  2 17  4  0
  2 20  4  0
  2 28  4  0
  3  6  1  0
  3 19  1  0
  4 19  1  0
  4 26  1  0
  5 17  4  0
  5 18  4  0
  6 20  1  0
  6 26  1  0
  7 24  4  0
  8 15  4  0
  8 24  4  0
  9 14  4  0
  9 21  4  0
 10 12  4  0
 10 27  4  0
 11 12  4  0
 11 23  4  0
 13 23  4  0
 13 27  4  0
 14 20  4  0
 15 22  4  0
 16 18  4  0
 16 25  2  0
 16 28  4  0
 21 28  4  0
 24 27  1  0
M  END
$$$$

 Created by Python create_sdf_string function

 28 31  0  0  0  0  0  0  0  0999 V2000
   -1.0054  -13.0622   19.1198 C   0  0  0  0  0  0  0  0  0  0  0  0
    3.1478   -8.5360   28.5161 C   0  0  0  0  0  0  0  0  0  0  0  0
    0.5798   -7.1906   27.9330 C   0  0  0  0  0  0  0  0  0  0  0  0
    0.3978   -5.1561   26.6955 C   0  0  0  0  0  0  0  0  0  0  0  0
    2.3063  -10.0533   30.0125 C   0  0  0  0  0  0  0  0  0  0  0  0
    1.8591   -6.8254   27.4685 N   0  0  0  0  0  0  0  0  0  0  0  0
   -0.2167  -12.1055   18.5568 C   0  0  0  0  0  0  0  0  0  0  0  0
   -2.0661  -10.6994   18.1916 C   0  0  0  0  0  0  0  0  0  0  0  0
    5.2703   -7.5691   27.1123 C   0  0  0  0  0  0  0  0  0  0  0  0
    1.6204   -9.9887   17.2935 C   0  0  0  0  0  0  0  0  0  0  0  0
    1.8931   -7.9265   16.2047 C   0  0  0  0  0  0  0  0  0  0  0  0
    2.4396   -9.0801   16.7132 C   0  0  0  0  0  0  0  0  0  0  0  0
   -0.2575   -8.6234   16.8582 C   0  0  0  0  0  0  0  0  0  0  0  0
    4.0614   -7.0367   27.0106 N   0  0  0  0  0  0  0  0  0  0  0  0
   -2.9133  -11.6279   18.7578 C   0  0  0  0  0  0  0  0  0  0  0  0
    4.5688  -10.1291   29.5758 C   0  0  0  0  0  0  0  0  0  0  0  0
    2.1008   -9.0410   29.1852 N   0  0  0  0  0  0  0  0  0  0  0  0
    3.4829  -10.5697   30.2091 N   0  0  0  0  0  0  0  0  0  0  0  0
   -0.3363   -6.1172   27.5628 C   0  0  0  0  0  0  0  0  0  0  0  0
    3.0331   -7.4400   27.6362 C   0  0  0  0  0  0  0  0  0  0  0  0
    5.4553   -8.5933   27.9644 C   0  0  0  0  0  0  0  0  0  0  0  0
   -2.3870  -12.8440   19.2512 C   0  0  0  0  0  0  0  0  0  0  0  0
    0.5331   -7.6964   16.2751 C   0  0  0  0  0  0  0  0  0  0  0  0
   -0.6740  -10.8737   18.0482 C   0  0  0  0  0  0  0  0  0  0  0  0
    5.6751  -10.5870   29.7637 O   0  0  0  0  0  0  0  0  0  0  0  0
    1.7612   -5.6483   26.7172 C   0  0  0  0  0  0  0  0  0  0  0  0
    0.2221   -9.8326   17.4055 C   0  0  0  0  0  0  0  0  0  0  0  0
    4.3850   -9.0730   28.6745 C   0  0  0  0  0  0  0  0  0  0  0  0
  1  7  4  0
  1 22  4  0
  2 17  4  0
  2 20  4  0
  2 28  4  0
  3  6  1  0
  3 19  1  0
  4 19  1  0
  4 26  1  0
  5 17  4  0
  5 18  4  0
  6 20  1  0
  6 26  1  0
  7 24  4  0
  8 15  4  0
  8 24  4  0
  9 14  4  0
  9 21  4  0
 10 12  4  0
 10 27  4  0
 11 12  4  0
 11 23  4  0
 13 23  4  0
 13 27  4  0
 14 20  4  0
 15 22  4  0
 16 18  4  0
 16 25  2  0
 16 28  4  0
 21 28  4  0
 24 27  1  0
M  END
$$$$

 Created by Python create_sdf_string function

 28 31  0  0  0  0  0  0  0  0999 V2000
   -1.0054  -13.0622   19.1198 C   0  0  0  0  0  0  0  0  0  0  0  0
    3.1478   -8.5360   28.5161 C   0  0  0  0  0  0  0  0  0  0  0  0
    0.5798   -7.1906   27.9330 C   0  0  0  0  0  0  0  0  0  0  0  0
    0.3978   -5.1561   26.6955 C   0  0  0  0  0  0  0  0  0  0  0  0
    2.3063  -10.0533   30.0125 C   0  0  0  0  0  0  0  0  0  0  0  0
    1.8591   -6.8254   27.4685 N   0  0  0  0  0  0  0  0  0  0  0  0
   -0.2167  -12.1055   18.5568 C   0  0  0  0  0  0  0  0  0  0  0  0
   -2.0661  -10.6994   18.1916 C   0  0  0  0  0  0  0  0  0  0  0  0
    5.2703   -7.5691   27.1123 C   0  0  0  0  0  0  0  0  0  0  0  0
    1.6204   -9.9887   17.2935 C   0  0  0  0  0  0  0  0  0  0  0  0
    1.8931   -7.9265   16.2047 C   0  0  0  0  0  0  0  0  0  0  0  0
    2.4396   -9.0801   16.7132 C   0  0  0  0  0  0  0  0  0  0  0  0
   -0.2575   -8.6234   16.8582 C   0  0  0  0  0  0  0  0  0  0  0  0
    4.0614   -7.0367   27.0106 N   0  0  0  0  0  0  0  0  0  0  0  0
   -2.9133  -11.6279   18.7578 C   0  0  0  0  0  0  0  0  0  0  0  0
    4.5688  -10.1291   29.5758 C   0  0  0  0  0  0  0  0  0  0  0  0
    2.1008   -9.0410   29.1852 N   0  0  0  0  0  0  0  0  0  0  0  0
    3.4829  -10.5697   30.2091 N   0  0  0  0  0  0  0  0  0  0  0  0
   -0.3363   -6.1172   27.5628 C   0  0  0  0  0  0  0  0  0  0  0  0
    3.0331   -7.4400   27.6362 C   0  0  0  0  0  0  0  0  0  0  0  0
    5.4553   -8.5933   27.9644 C   0  0  0  0  0  0  0  0  0  0  0  0
   -2.3870  -12.8440   19.2512 C   0  0  0  0  0  0  0  0  0  0  0  0
    0.5331   -7.6964   16.2751 C   0  0  0  0  0  0  0  0  0  0  0  0
   -0.6740  -10.8737   18.0482 C   0  0  0  0  0  0  0  0  0  0  0  0
    5.6751  -10.5870   29.7637 O   0  0  0  0  0  0  0  0  0  0  0  0
    1.7612   -5.6483   26.7172 C   0  0  0  0  0  0  0  0  0  0  0  0
    0.2221   -9.8326   17.4055 C   0  0  0  0  0  0  0  0  0  0  0  0
    4.3850   -9.0730   28.6745 C   0  0  0  0  0  0  0  0  0  0  0  0
  1  7  4  0
  1 22  4  0
  2 17  4  0
  2 20  4  0
  2 28  4  0
  3  6  1  0
  3 19  1  0
  4 19  1  0
  4 26  1  0
  5 17  4  0
  5 18  4  0
  6 20  1  0
  6 26  1  0
  7 24  4  0
  8 15  4  0
  8 24  4  0
  9 14  4  0
  9 21  4  0
 10 12  4  0
 10 27  4  0
 11 12  4  0
 11 23  4  0
 13 23  4  0
 13 27  4  0
 14 20  4  0
 15 22  4  0
 16 18  4  0
 16 25  2  0
 16 28  4  0
 21 28  4  0
 24 27  1  0
M  END
$$$$

 Created by Python create_sdf_string function

 28 31  0  0  0  0  0  0  0  0999 V2000
   -1.0054  -13.0622   19.1198 C   0  0  0  0  0  0  0  0  0  0  0  0
    3.1478   -8.5360   28.5161 C   0  0  0  0  0  0  0  0  0  0  0  0
    0.5798   -7.1906   27.9330 C   0  0  0  0  0  0  0  0  0  0  0  0
    0.3978   -5.1561   26.6955 C   0  0  0  0  0  0  0  0  0  0  0  0
    2.3063  -10.0533   30.0125 C   0  0  0  0  0  0  0  0  0  0  0  0
    1.8591   -6.8254   27.4685 N   0  0  0  0  0  0  0  0  0  0  0  0
   -0.2167  -12.1055   18.5568 C   0  0  0  0  0  0  0  0  0  0  0  0
   -2.0661  -10.6994   18.1916 C   0  0  0  0  0  0  0  0  0  0  0  0
    5.2703   -7.5691   27.1123 C   0  0  0  0  0  0  0  0  0  0  0  0
    1.6204   -9.9887   17.2935 C   0  0  0  0  0  0  0  0  0  0  0  0
    1.8931   -7.9265   16.2047 C   0  0  0  0  0  0  0  0  0  0  0  0
    2.4396   -9.0801   16.7132 C   0  0  0  0  0  0  0  0  0  0  0  0
   -0.2575   -8.6234   16.8582 C   0  0  0  0  0  0  0  0  0  0  0  0
    4.0614   -7.0367   27.0106 N   0  0  0  0  0  0  0  0  0  0  0  0
   -2.9133  -11.6279   18.7578 C   0  0  0  0  0  0  0  0  0  0  0  0
    4.5688  -10.1291   29.5758 C   0  0  0  0  0  0  0  0  0  0  0  0
    2.1008   -9.0410   29.1852 N   0  0  0  0  0  0  0  0  0  0  0  0
    3.4829  -10.5697   30.2091 N   0  0  0  0  0  0  0  0  0  0  0  0
   -0.3363   -6.1172   27.5628 C   0  0  0  0  0  0  0  0  0  0  0  0
    3.0331   -7.4400   27.6362 C   0  0  0  0  0  0  0  0  0  0  0  0
    5.4553   -8.5933   27.9644 C   0  0  0  0  0  0  0  0  0  0  0  0
   -2.3870  -12.8440   19.2512 C   0  0  0  0  0  0  0  0  0  0  0  0
    0.5331   -7.6964   16.2751 C   0  0  0  0  0  0  0  0  0  0  0  0
   -0.6740  -10.8737   18.0482 C   0  0  0  0  0  0  0  0  0  0  0  0
    5.6751  -10.5870   29.7637 O   0  0  0  0  0  0  0  0  0  0  0  0
    1.7612   -5.6483   26.7172 C   0  0  0  0  0  0  0  0  0  0  0  0
    0.2221   -9.8326   17.4055 C   0  0  0  0  0  0  0  0  0  0  0  0
    4.3850   -9.0730   28.6745 C   0  0  0  0  0  0  0  0  0  0  0  0
  1  7  4  0
  1 22  4  0
  2 17  4  0
  2 20  4  0
  2 28  4  0
  3  6  1  0
  3 19  1  0
  4 19  1  0
  4 26  1  0
  5 17  4  0
  5 18  4  0
  6 20  1  0
  6 26  1  0
  7 24  4  0
  8 15  4  0
  8 24  4  0
  9 14  4  0
  9 21  4  0
 10 12  4  0
 10 27  4  0
 11 12  4  0
 11 23  4  0
 13 23  4  0
 13 27  4  0
 14 20  4  0
 15 22  4  0
 16 18  4  0
 16 25  2  0
 16 28  4  0
 21 28  4  0
 24 27  1  0
M  END
$$$$

 Created by Python create_sdf_string function

 28 31  0  0  0  0  0  0  0  0999 V2000
   -1.0054  -13.0622   19.1198 C   0  0  0  0  0  0  0  0  0  0  0  0
    3.1478   -8.5360   28.5161 C   0  0  0  0  0  0  0  0  0  0  0  0
    0.5798   -7.1906   27.9330 C   0  0  0  0  0  0  0  0  0  0  0  0
    0.3978   -5.1561   26.6955 C   0  0  0  0  0  0  0  0  0  0  0  0
    2.3063  -10.0533   30.0125 C   0  0  0  0  0  0  0  0  0  0  0  0
    1.8591   -6.8254   27.4685 N   0  0  0  0  0  0  0  0  0  0  0  0
   -0.2167  -12.1055   18.5568 C   0  0  0  0  0  0  0  0  0  0  0  0
   -2.0661  -10.6994   18.1916 C   0  0  0  0  0  0  0  0  0  0  0  0
    5.2703   -7.5691   27.1123 C   0  0  0  0  0  0  0  0  0  0  0  0
    1.6204   -9.9887   17.2935 C   0  0  0  0  0  0  0  0  0  0  0  0
    1.8931   -7.9265   16.2047 C   0  0  0  0  0  0  0  0  0  0  0  0
    2.4396   -9.0801   16.7132 C   0  0  0  0  0  0  0  0  0  0  0  0
   -0.2575   -8.6234   16.8582 C   0  0  0  0  0  0  0  0  0  0  0  0
    4.0614   -7.0367   27.0106 N   0  0  0  0  0  0  0  0  0  0  0  0
   -2.9133  -11.6279   18.7578 C   0  0  0  0  0  0  0  0  0  0  0  0
    4.5688  -10.1291   29.5758 C   0  0  0  0  0  0  0  0  0  0  0  0
    2.1008   -9.0410   29.1852 N   0  0  0  0  0  0  0  0  0  0  0  0
    3.4829  -10.5697   30.2091 N   0  0  0  0  0  0  0  0  0  0  0  0
   -0.3363   -6.1172   27.5628 C   0  0  0  0  0  0  0  0  0  0  0  0
    3.0331   -7.4400   27.6362 C   0  0  0  0  0  0  0  0  0  0  0  0
    5.4553   -8.5933   27.9644 C   0  0  0  0  0  0  0  0  0  0  0  0
   -2.3870  -12.8440   19.2512 C   0  0  0  0  0  0  0  0  0  0  0  0
    0.5331   -7.6964   16.2751 C   0  0  0  0  0  0  0  0  0  0  0  0
   -0.6740  -10.8737   18.0482 C   0  0  0  0  0  0  0  0  0  0  0  0
    5.6751  -10.5870   29.7637 O   0  0  0  0  0  0  0  0  0  0  0  0
    1.7612   -5.6483   26.7172 C   0  0  0  0  0  0  0  0  0  0  0  0
    0.2221   -9.8326   17.4055 C   0  0  0  0  0  0  0  0  0  0  0  0
    4.3850   -9.0730   28.6745 C   0  0  0  0  0  0  0  0  0  0  0  0
  1  7  4  0
  1 22  4  0
  2 17  4  0
  2 20  4  0
  2 28  4  0
  3  6  1  0
  3 19  1  0
  4 19  1  0
  4 26  1  0
  5 17  4  0
  5 18  4  0
  6 20  1  0
  6 26  1  0
  7 24  4  0
  8 15  4  0
  8 24  4  0
  9 14  4  0
  9 21  4  0
 10 12  4  0
 10 27  4  0
 11 12  4  0
 11 23  4  0
 13 23  4  0
 13 27  4  0
 14 20  4  0
 15 22  4  0
 16 18  4  0
 16 25  2  0
 16 28  4  0
 21 28  4  0
 24 27  1  0
M  END
$$$$

 Created by Python create_sdf_string function

 28 31  0  0  0  0  0  0  0  0999 V2000
   -1.0054  -13.0622   19.1198 C   0  0  0  0  0  0  0  0  0  0  0  0
    3.1478   -8.5360   28.5161 C   0  0  0  0  0  0  0  0  0  0  0  0
    0.5798   -7.1906   27.9330 C   0  0  0  0  0  0  0  0  0  0  0  0
    0.3978   -5.1561   26.6955 C   0  0  0  0  0  0  0  0  0  0  0  0
    2.3063  -10.0533   30.0125 C   0  0  0  0  0  0  0  0  0  0  0  0
    1.8591   -6.8254   27.4685 N   0  0  0  0  0  0  0  0  0  0  0  0
   -0.2167  -12.1055   18.5568 C   0  0  0  0  0  0  0  0  0  0  0  0
   -2.0661  -10.6994   18.1916 C   0  0  0  0  0  0  0  0  0  0  0  0
    5.2703   -7.5691   27.1123 C   0  0  0  0  0  0  0  0  0  0  0  0
    1.6204   -9.9887   17.2935 C   0  0  0  0  0  0  0  0  0  0  0  0
    1.8931   -7.9265   16.2047 C   0  0  0  0  0  0  0  0  0  0  0  0
    2.4396   -9.0801   16.7132 C   0  0  0  0  0  0  0  0  0  0  0  0
   -0.2575   -8.6234   16.8582 C   0  0  0  0  0  0  0  0  0  0  0  0
    4.0614   -7.0367   27.0106 N   0  0  0  0  0  0  0  0  0  0  0  0
   -2.9133  -11.6279   18.7578 C   0  0  0  0  0  0  0  0  0  0  0  0
    4.5688  -10.1291   29.5758 C   0  0  0  0  0  0  0  0  0  0  0  0
    2.1008   -9.0410   29.1852 N   0  0  0  0  0  0  0  0  0  0  0  0
    3.4829  -10.5697   30.2091 N   0  0  0  0  0  0  0  0  0  0  0  0
   -0.3363   -6.1172   27.5628 C   0  0  0  0  0  0  0  0  0  0  0  0
    3.0331   -7.4400   27.6362 C   0  0  0  0  0  0  0  0  0  0  0  0
    5.4553   -8.5933   27.9644 C   0  0  0  0  0  0  0  0  0  0  0  0
   -2.3870  -12.8440   19.2512 C   0  0  0  0  0  0  0  0  0  0  0  0
    0.5331   -7.6964   16.2751 C   0  0  0  0  0  0  0  0  0  0  0  0
   -0.6740  -10.8737   18.0482 C   0  0  0  0  0  0  0  0  0  0  0  0
    5.6751  -10.5870   29.7637 O   0  0  0  0  0  0  0  0  0  0  0  0
    1.7612   -5.6483   26.7172 C   0  0  0  0  0  0  0  0  0  0  0  0
    0.2221   -9.8326   17.4055 C   0  0  0  0  0  0  0  0  0  0  0  0
    4.3850   -9.0730   28.6745 C   0  0  0  0  0  0  0  0  0  0  0  0
  1  7  4  0
  1 22  4  0
  2 17  4  0
  2 20  4  0
  2 28  4  0
  3  6  1  0
  3 19  1  0
  4 19  1  0
  4 26  1  0
  5 17  4  0
  5 18  4  0
  6 20  1  0
  6 26  1  0
  7 24  4  0
  8 15  4  0
  8 24  4  0
  9 14  4  0
  9 21  4  0
 10 12  4  0
 10 27  4  0
 11 12  4  0
 11 23  4  0
 13 23  4  0
 13 27  4  0
 14 20  4  0
 15 22  4  0
 16 18  4  0
 16 25  2  0
 16 28  4  0
 21 28  4  0
 24 27  1  0
M  END
$$$$

 Created by Python create_sdf_string function

 28 31  0  0  0  0  0  0  0  0999 V2000
   -1.0054  -13.0622   19.1198 C   0  0  0  0  0  0  0  0  0  0  0  0
    3.1478   -8.5360   28.5161 C   0  0  0  0  0  0  0  0  0  0  0  0
    0.5798   -7.1906   27.9330 C   0  0  0  0  0  0  0  0  0  0  0  0
    0.3978   -5.1561   26.6955 C   0  0  0  0  0  0  0  0  0  0  0  0
    2.3063  -10.0533   30.0125 C   0  0  0  0  0  0  0  0  0  0  0  0
    1.8591   -6.8254   27.4685 N   0  0  0  0  0  0  0  0  0  0  0  0
   -0.2167  -12.1055   18.5568 C   0  0  0  0  0  0  0  0  0  0  0  0
   -2.0661  -10.6994   18.1916 C   0  0  0  0  0  0  0  0  0  0  0  0
    5.2703   -7.5691   27.1123 C   0  0  0  0  0  0  0  0  0  0  0  0
    1.6204   -9.9887   17.2935 C   0  0  0  0  0  0  0  0  0  0  0  0
    1.8931   -7.9265   16.2047 C   0  0  0  0  0  0  0  0  0  0  0  0
    2.4396   -9.0801   16.7132 C   0  0  0  0  0  0  0  0  0  0  0  0
   -0.2575   -8.6234   16.8582 C   0  0  0  0  0  0  0  0  0  0  0  0
    4.0614   -7.0367   27.0106 N   0  0  0  0  0  0  0  0  0  0  0  0
   -2.9133  -11.6279   18.7578 C   0  0  0  0  0  0  0  0  0  0  0  0
    4.5688  -10.1291   29.5758 C   0  0  0  0  0  0  0  0  0  0  0  0
    2.1008   -9.0410   29.1852 N   0  0  0  0  0  0  0  0  0  0  0  0
    3.4829  -10.5697   30.2091 N   0  0  0  0  0  0  0  0  0  0  0  0
   -0.3363   -6.1172   27.5628 C   0  0  0  0  0  0  0  0  0  0  0  0
    3.0331   -7.4400   27.6362 C   0  0  0  0  0  0  0  0  0  0  0  0
    5.4553   -8.5933   27.9644 C   0  0  0  0  0  0  0  0  0  0  0  0
   -2.3870  -12.8440   19.2512 C   0  0  0  0  0  0  0  0  0  0  0  0
    0.5331   -7.6964   16.2751 C   0  0  0  0  0  0  0  0  0  0  0  0
   -0.6740  -10.8737   18.0482 C   0  0  0  0  0  0  0  0  0  0  0  0
    5.6751  -10.5870   29.7637 O   0  0  0  0  0  0  0  0  0  0  0  0
    1.7612   -5.6483   26.7172 C   0  0  0  0  0  0  0  0  0  0  0  0
    0.2221   -9.8326   17.4055 C   0  0  0  0  0  0  0  0  0  0  0  0
    4.3850   -9.0730   28.6745 C   0  0  0  0  0  0  0  0  0  0  0  0
  1  7  4  0
  1 22  4  0
  2 17  4  0
  2 20  4  0
  2 28  4  0
  3  6  1  0
  3 19  1  0
  4 19  1  0
  4 26  1  0
  5 17  4  0
  5 18  4  0
  6 20  1  0
  6 26  1  0
  7 24  4  0
  8 15  4  0
  8 24  4  0
  9 14  4  0
  9 21  4  0
 10 12  4  0
 10 27  4  0
 11 12  4  0
 11 23  4  0
 13 23  4  0
 13 27  4  0
 14 20  4  0
 15 22  4  0
 16 18  4  0
 16 25  2  0
 16 28  4  0
 21 28  4  0
 24 27  1  0
M  END
$$$$

 Created by Python create_sdf_string function

 28 31  0  0  0  0  0  0  0  0999 V2000
   -1.0054  -13.0622   19.1198 C   0  0  0  0  0  0  0  0  0  0  0  0
    3.1478   -8.5360   28.5161 C   0  0  0  0  0  0  0  0  0  0  0  0
    0.5798   -7.1906   27.9330 C   0  0  0  0  0  0  0  0  0  0  0  0
    0.3978   -5.1561   26.6955 C   0  0  0  0  0  0  0  0  0  0  0  0
    2.3063  -10.0533   30.0125 C   0  0  0  0  0  0  0  0  0  0  0  0
    1.8591   -6.8254   27.4685 N   0  0  0  0  0  0  0  0  0  0  0  0
   -0.2167  -12.1055   18.5568 C   0  0  0  0  0  0  0  0  0  0  0  0
   -2.0661  -10.6994   18.1916 C   0  0  0  0  0  0  0  0  0  0  0  0
    5.2703   -7.5691   27.1123 C   0  0  0  0  0  0  0  0  0  0  0  0
    1.6204   -9.9887   17.2935 C   0  0  0  0  0  0  0  0  0  0  0  0
    1.8931   -7.9265   16.2047 C   0  0  0  0  0  0  0  0  0  0  0  0
    2.4396   -9.0801   16.7132 C   0  0  0  0  0  0  0  0  0  0  0  0
   -0.2575   -8.6234   16.8582 C   0  0  0  0  0  0  0  0  0  0  0  0
    4.0614   -7.0367   27.0106 N   0  0  0  0  0  0  0  0  0  0  0  0
   -2.9133  -11.6279   18.7578 C   0  0  0  0  0  0  0  0  0  0  0  0
    4.5688  -10.1291   29.5758 C   0  0  0  0  0  0  0  0  0  0  0  0
    2.1008   -9.0410   29.1852 N   0  0  0  0  0  0  0  0  0  0  0  0
    3.4829  -10.5697   30.2091 N   0  0  0  0  0  0  0  0  0  0  0  0
   -0.3363   -6.1172   27.5628 C   0  0  0  0  0  0  0  0  0  0  0  0
    3.0331   -7.4400   27.6362 C   0  0  0  0  0  0  0  0  0  0  0  0
    5.4553   -8.5933   27.9644 C   0  0  0  0  0  0  0  0  0  0  0  0
   -2.3870  -12.8440   19.2512 C   0  0  0  0  0  0  0  0  0  0  0  0
    0.5331   -7.6964   16.2751 C   0  0  0  0  0  0  0  0  0  0  0  0
   -0.6740  -10.8737   18.0482 C   0  0  0  0  0  0  0  0  0  0  0  0
    5.6751  -10.5870   29.7637 O   0  0  0  0  0  0  0  0  0  0  0  0
    1.7612   -5.6483   26.7172 C   0  0  0  0  0  0  0  0  0  0  0  0
    0.2221   -9.8326   17.4055 C   0  0  0  0  0  0  0  0  0  0  0  0
    4.3850   -9.0730   28.6745 C   0  0  0  0  0  0  0  0  0  0  0  0
  1  7  4  0
  1 22  4  0
  2 17  4  0
  2 20  4  0
  2 28  4  0
  3  6  1  0
  3 19  1  0
  4 19  1  0
  4 26  1  0
  5 17  4  0
  5 18  4  0
  6 20  1  0
  6 26  1  0
  7 24  4  0
  8 15  4  0
  8 24  4  0
  9 14  4  0
  9 21  4  0
 10 12  4  0
 10 27  4  0
 11 12  4  0
 11 23  4  0
 13 23  4  0
 13 27  4  0
 14 20  4  0
 15 22  4  0
 16 18  4  0
 16 25  2  0
 16 28  4  0
 21 28  4  0
 24 27  1  0
M  END
$$$$

 Created by Python create_sdf_string function

 28 31  0  0  0  0  0  0  0  0999 V2000
   -1.0054  -13.0622   19.1198 C   0  0  0  0  0  0  0  0  0  0  0  0
    3.1478   -8.5360   28.5161 C   0  0  0  0  0  0  0  0  0  0  0  0
    0.5798   -7.1906   27.9330 C   0  0  0  0  0  0  0  0  0  0  0  0
    0.3978   -5.1561   26.6955 C   0  0  0  0  0  0  0  0  0  0  0  0
    2.3063  -10.0533   30.0125 C   0  0  0  0  0  0  0  0  0  0  0  0
    1.8591   -6.8254   27.4685 N   0  0  0  0  0  0  0  0  0  0  0  0
   -0.2167  -12.1055   18.5568 C   0  0  0  0  0  0  0  0  0  0  0  0
   -2.0661  -10.6994   18.1916 C   0  0  0  0  0  0  0  0  0  0  0  0
    5.2703   -7.5691   27.1123 C   0  0  0  0  0  0  0  0  0  0  0  0
    1.6204   -9.9887   17.2935 C   0  0  0  0  0  0  0  0  0  0  0  0
    1.8931   -7.9265   16.2047 C   0  0  0  0  0  0  0  0  0  0  0  0
    2.4396   -9.0801   16.7132 C   0  0  0  0  0  0  0  0  0  0  0  0
   -0.2575   -8.6234   16.8582 C   0  0  0  0  0  0  0  0  0  0  0  0
    4.0614   -7.0367   27.0106 N   0  0  0  0  0  0  0  0  0  0  0  0
   -2.9133  -11.6279   18.7578 C   0  0  0  0  0  0  0  0  0  0  0  0
    4.5688  -10.1291   29.5758 C   0  0  0  0  0  0  0  0  0  0  0  0
    2.1008   -9.0410   29.1852 N   0  0  0  0  0  0  0  0  0  0  0  0
    3.4829  -10.5697   30.2091 N   0  0  0  0  0  0  0  0  0  0  0  0
   -0.3363   -6.1172   27.5628 C   0  0  0  0  0  0  0  0  0  0  0  0
    3.0331   -7.4400   27.6362 C   0  0  0  0  0  0  0  0  0  0  0  0
    5.4553   -8.5933   27.9644 C   0  0  0  0  0  0  0  0  0  0  0  0
   -2.3870  -12.8440   19.2512 C   0  0  0  0  0  0  0  0  0  0  0  0
    0.5331   -7.6964   16.2751 C   0  0  0  0  0  0  0  0  0  0  0  0
   -0.6740  -10.8737   18.0482 C   0  0  0  0  0  0  0  0  0  0  0  0
    5.6751  -10.5870   29.7637 O   0  0  0  0  0  0  0  0  0  0  0  0
    1.7612   -5.6483   26.7172 C   0  0  0  0  0  0  0  0  0  0  0  0
    0.2221   -9.8326   17.4055 C   0  0  0  0  0  0  0  0  0  0  0  0
    4.3850   -9.0730   28.6745 C   0  0  0  0  0  0  0  0  0  0  0  0
  1  7  4  0
  1 22  4  0
  2 17  4  0
  2 20  4  0
  2 28  4  0
  3  6  1  0
  3 19  1  0
  4 19  1  0
  4 26  1  0
  5 17  4  0
  5 18  4  0
  6 20  1  0
  6 26  1  0
  7 24  4  0
  8 15  4  0
  8 24  4  0
  9 14  4  0
  9 21  4  0
 10 12  4  0
 10 27  4  0
 11 12  4  0
 11 23  4  0
 13 23  4  0
 13 27  4  0
 14 20  4  0
 15 22  4  0
 16 18  4  0
 16 25  2  0
 16 28  4  0
 21 28  4  0
 24 27  1  0
M  END
$$$$

 Created by Python create_sdf_string function

 28 31  0  0  0  0  0  0  0  0999 V2000
   -1.0054  -13.0622   19.1198 C   0  0  0  0  0  0  0  0  0  0  0  0
    3.1478   -8.5360   28.5161 C   0  0  0  0  0  0  0  0  0  0  0  0
    0.5798   -7.1906   27.9330 C   0  0  0  0  0  0  0  0  0  0  0  0
    0.3978   -5.1561   26.6955 C   0  0  0  0  0  0  0  0  0  0  0  0
    2.3063  -10.0533   30.0125 C   0  0  0  0  0  0  0  0  0  0  0  0
    1.8591   -6.8254   27.4685 N   0  0  0  0  0  0  0  0  0  0  0  0
   -0.2167  -12.1055   18.5568 C   0  0  0  0  0  0  0  0  0  0  0  0
   -2.0661  -10.6994   18.1916 C   0  0  0  0  0  0  0  0  0  0  0  0
    5.2703   -7.5691   27.1123 C   0  0  0  0  0  0  0  0  0  0  0  0
    1.6204   -9.9887   17.2935 C   0  0  0  0  0  0  0  0  0  0  0  0
    1.8931   -7.9265   16.2047 C   0  0  0  0  0  0  0  0  0  0  0  0
    2.4396   -9.0801   16.7132 C   0  0  0  0  0  0  0  0  0  0  0  0
   -0.2575   -8.6234   16.8582 C   0  0  0  0  0  0  0  0  0  0  0  0
    4.0614   -7.0367   27.0106 N   0  0  0  0  0  0  0  0  0  0  0  0
   -2.9133  -11.6279   18.7578 C   0  0  0  0  0  0  0  0  0  0  0  0
    4.5688  -10.1291   29.5758 C   0  0  0  0  0  0  0  0  0  0  0  0
    2.1008   -9.0410   29.1852 N   0  0  0  0  0  0  0  0  0  0  0  0
    3.4829  -10.5697   30.2091 N   0  0  0  0  0  0  0  0  0  0  0  0
   -0.3363   -6.1172   27.5628 C   0  0  0  0  0  0  0  0  0  0  0  0
    3.0331   -7.4400   27.6362 C   0  0  0  0  0  0  0  0  0  0  0  0
    5.4553   -8.5933   27.9644 C   0  0  0  0  0  0  0  0  0  0  0  0
   -2.3870  -12.8440   19.2512 C   0  0  0  0  0  0  0  0  0  0  0  0
    0.5331   -7.6964   16.2751 C   0  0  0  0  0  0  0  0  0  0  0  0
   -0.6740  -10.8737   18.0482 C   0  0  0  0  0  0  0  0  0  0  0  0
    5.6751  -10.5870   29.7637 O   0  0  0  0  0  0  0  0  0  0  0  0
    1.7612   -5.6483   26.7172 C   0  0  0  0  0  0  0  0  0  0  0  0
    0.2221   -9.8326   17.4055 C   0  0  0  0  0  0  0  0  0  0  0  0
    4.3850   -9.0730   28.6745 C   0  0  0  0  0  0  0  0  0  0  0  0
  1  7  4  0
  1 22  4  0
  2 17  4  0
  2 20  4  0
  2 28  4  0
  3  6  1  0
  3 19  1  0
  4 19  1  0
  4 26  1  0
  5 17  4  0
  5 18  4  0
  6 20  1  0
  6 26  1  0
  7 24  4  0
  8 15  4  0
  8 24  4  0
  9 14  4  0
  9 21  4  0
 10 12  4  0
 10 27  4  0
 11 12  4  0
 11 23  4  0
 13 23  4  0
 13 27  4  0
 14 20  4  0
 15 22  4  0
 16 18  4  0
 16 25  2  0
 16 28  4  0
 21 28  4  0
 24 27  1  0
M  END
$$$$

 Created by Python create_sdf_string function

 28 31  0  0  0  0  0  0  0  0999 V2000
   -1.0054  -13.0622   19.1198 C   0  0  0  0  0  0  0  0  0  0  0  0
    3.1478   -8.5360   28.5161 C   0  0  0  0  0  0  0  0  0  0  0  0
    0.5798   -7.1906   27.9330 C   0  0  0  0  0  0  0  0  0  0  0  0
    0.3978   -5.1561   26.6955 C   0  0  0  0  0  0  0  0  0  0  0  0
    2.3063  -10.0533   30.0125 C   0  0  0  0  0  0  0  0  0  0  0  0
    1.8591   -6.8254   27.4685 N   0  0  0  0  0  0  0  0  0  0  0  0
   -0.2167  -12.1055   18.5568 C   0  0  0  0  0  0  0  0  0  0  0  0
   -2.0661  -10.6994   18.1916 C   0  0  0  0  0  0  0  0  0  0  0  0
    5.2703   -7.5691   27.1123 C   0  0  0  0  0  0  0  0  0  0  0  0
    1.6204   -9.9887   17.2935 C   0  0  0  0  0  0  0  0  0  0  0  0
    1.8931   -7.9265   16.2047 C   0  0  0  0  0  0  0  0  0  0  0  0
    2.4396   -9.0801   16.7132 C   0  0  0  0  0  0  0  0  0  0  0  0
   -0.2575   -8.6234   16.8582 C   0  0  0  0  0  0  0  0  0  0  0  0
    4.0614   -7.0367   27.0106 N   0  0  0  0  0  0  0  0  0  0  0  0
   -2.9133  -11.6279   18.7578 C   0  0  0  0  0  0  0  0  0  0  0  0
    4.5688  -10.1291   29.5758 C   0  0  0  0  0  0  0  0  0  0  0  0
    2.1008   -9.0410   29.1852 N   0  0  0  0  0  0  0  0  0  0  0  0
    3.4829  -10.5697   30.2091 N   0  0  0  0  0  0  0  0  0  0  0  0
   -0.3363   -6.1172   27.5628 C   0  0  0  0  0  0  0  0  0  0  0  0
    3.0331   -7.4400   27.6362 C   0  0  0  0  0  0  0  0  0  0  0  0
    5.4553   -8.5933   27.9644 C   0  0  0  0  0  0  0  0  0  0  0  0
   -2.3870  -12.8440   19.2512 C   0  0  0  0  0  0  0  0  0  0  0  0
    0.5331   -7.6964   16.2751 C   0  0  0  0  0  0  0  0  0  0  0  0
   -0.6740  -10.8737   18.0482 C   0  0  0  0  0  0  0  0  0  0  0  0
    5.6751  -10.5870   29.7637 O   0  0  0  0  0  0  0  0  0  0  0  0
    1.7612   -5.6483   26.7172 C   0  0  0  0  0  0  0  0  0  0  0  0
    0.2221   -9.8326   17.4055 C   0  0  0  0  0  0  0  0  0  0  0  0
    4.3850   -9.0730   28.6745 C   0  0  0  0  0  0  0  0  0  0  0  0
  1  7  4  0
  1 22  4  0
  2 17  4  0
  2 20  4  0
  2 28  4  0
  3  6  1  0
  3 19  1  0
  4 19  1  0
  4 26  1  0
  5 17  4  0
  5 18  4  0
  6 20  1  0
  6 26  1  0
  7 24  4  0
  8 15  4  0
  8 24  4  0
  9 14  4  0
  9 21  4  0
 10 12  4  0
 10 27  4  0
 11 12  4  0
 11 23  4  0
 13 23  4  0
 13 27  4  0
 14 20  4  0
 15 22  4  0
 16 18  4  0
 16 25  2  0
 16 28  4  0
 21 28  4  0
 24 27  1  0
M  END
$$$$

 Created by Python create_sdf_string function

 28 31  0  0  0  0  0  0  0  0999 V2000
   -1.0054  -13.0622   19.1198 C   0  0  0  0  0  0  0  0  0  0  0  0
    3.1478   -8.5360   28.5161 C   0  0  0  0  0  0  0  0  0  0  0  0
    0.5798   -7.1906   27.9330 C   0  0  0  0  0  0  0  0  0  0  0  0
    0.3978   -5.1561   26.6955 C   0  0  0  0  0  0  0  0  0  0  0  0
    2.3063  -10.0533   30.0125 C   0  0  0  0  0  0  0  0  0  0  0  0
    1.8591   -6.8254   27.4685 N   0  0  0  0  0  0  0  0  0  0  0  0
   -0.2167  -12.1055   18.5568 C   0  0  0  0  0  0  0  0  0  0  0  0
   -2.0661  -10.6994   18.1916 C   0  0  0  0  0  0  0  0  0  0  0  0
    5.2703   -7.5691   27.1123 C   0  0  0  0  0  0  0  0  0  0  0  0
    1.6204   -9.9887   17.2935 C   0  0  0  0  0  0  0  0  0  0  0  0
    1.8931   -7.9265   16.2047 C   0  0  0  0  0  0  0  0  0  0  0  0
    2.4396   -9.0801   16.7132 C   0  0  0  0  0  0  0  0  0  0  0  0
   -0.2575   -8.6234   16.8582 C   0  0  0  0  0  0  0  0  0  0  0  0
    4.0614   -7.0367   27.0106 N   0  0  0  0  0  0  0  0  0  0  0  0
   -2.9133  -11.6279   18.7578 C   0  0  0  0  0  0  0  0  0  0  0  0
    4.5688  -10.1291   29.5758 C   0  0  0  0  0  0  0  0  0  0  0  0
    2.1008   -9.0410   29.1852 N   0  0  0  0  0  0  0  0  0  0  0  0
    3.4829  -10.5697   30.2091 N   0  0  0  0  0  0  0  0  0  0  0  0
   -0.3363   -6.1172   27.5628 C   0  0  0  0  0  0  0  0  0  0  0  0
    3.0331   -7.4400   27.6362 C   0  0  0  0  0  0  0  0  0  0  0  0
    5.4553   -8.5933   27.9644 C   0  0  0  0  0  0  0  0  0  0  0  0
   -2.3870  -12.8440   19.2512 C   0  0  0  0  0  0  0  0  0  0  0  0
    0.5331   -7.6964   16.2751 C   0  0  0  0  0  0  0  0  0  0  0  0
   -0.6740  -10.8737   18.0482 C   0  0  0  0  0  0  0  0  0  0  0  0
    5.6751  -10.5870   29.7637 O   0  0  0  0  0  0  0  0  0  0  0  0
    1.7612   -5.6483   26.7172 C   0  0  0  0  0  0  0  0  0  0  0  0
    0.2221   -9.8326   17.4055 C   0  0  0  0  0  0  0  0  0  0  0  0
    4.3850   -9.0730   28.6745 C   0  0  0  0  0  0  0  0  0  0  0  0
  1  7  4  0
  1 22  4  0
  2 17  4  0
  2 20  4  0
  2 28  4  0
  3  6  1  0
  3 19  1  0
  4 19  1  0
  4 26  1  0
  5 17  4  0
  5 18  4  0
  6 20  1  0
  6 26  1  0
  7 24  4  0
  8 15  4  0
  8 24  4  0
  9 14  4  0
  9 21  4  0
 10 12  4  0
 10 27  4  0
 11 12  4  0
 11 23  4  0
 13 23  4  0
 13 27  4  0
 14 20  4  0
 15 22  4  0
 16 18  4  0
 16 25  2  0
 16 28  4  0
 21 28  4  0
 24 27  1  0
M  END
$$$$

 Created by Python create_sdf_string function

 28 31  0  0  0  0  0  0  0  0999 V2000
   -1.0054  -13.0622   19.1198 C   0  0  0  0  0  0  0  0  0  0  0  0
    3.1478   -8.5360   28.5161 C   0  0  0  0  0  0  0  0  0  0  0  0
    0.5798   -7.1906   27.9330 C   0  0  0  0  0  0  0  0  0  0  0  0
    0.3978   -5.1561   26.6955 C   0  0  0  0  0  0  0  0  0  0  0  0
    2.3063  -10.0533   30.0125 C   0  0  0  0  0  0  0  0  0  0  0  0
    1.8591   -6.8254   27.4685 N   0  0  0  0  0  0  0  0  0  0  0  0
   -0.2167  -12.1055   18.5568 C   0  0  0  0  0  0  0  0  0  0  0  0
   -2.0661  -10.6994   18.1916 C   0  0  0  0  0  0  0  0  0  0  0  0
    5.2703   -7.5691   27.1123 C   0  0  0  0  0  0  0  0  0  0  0  0
    1.6204   -9.9887   17.2935 C   0  0  0  0  0  0  0  0  0  0  0  0
    1.8931   -7.9265   16.2047 C   0  0  0  0  0  0  0  0  0  0  0  0
    2.4396   -9.0801   16.7132 C   0  0  0  0  0  0  0  0  0  0  0  0
   -0.2575   -8.6234   16.8582 C   0  0  0  0  0  0  0  0  0  0  0  0
    4.0614   -7.0367   27.0106 N   0  0  0  0  0  0  0  0  0  0  0  0
   -2.9133  -11.6279   18.7578 C   0  0  0  0  0  0  0  0  0  0  0  0
    4.5688  -10.1291   29.5758 C   0  0  0  0  0  0  0  0  0  0  0  0
    2.1008   -9.0410   29.1852 N   0  0  0  0  0  0  0  0  0  0  0  0
    3.4829  -10.5697   30.2091 N   0  0  0  0  0  0  0  0  0  0  0  0
   -0.3363   -6.1172   27.5628 C   0  0  0  0  0  0  0  0  0  0  0  0
    3.0331   -7.4400   27.6362 C   0  0  0  0  0  0  0  0  0  0  0  0
    5.4553   -8.5933   27.9644 C   0  0  0  0  0  0  0  0  0  0  0  0
   -2.3870  -12.8440   19.2512 C   0  0  0  0  0  0  0  0  0  0  0  0
    0.5331   -7.6964   16.2751 C   0  0  0  0  0  0  0  0  0  0  0  0
   -0.6740  -10.8737   18.0482 C   0  0  0  0  0  0  0  0  0  0  0  0
    5.6751  -10.5870   29.7637 O   0  0  0  0  0  0  0  0  0  0  0  0
    1.7612   -5.6483   26.7172 C   0  0  0  0  0  0  0  0  0  0  0  0
    0.2221   -9.8326   17.4055 C   0  0  0  0  0  0  0  0  0  0  0  0
    4.3850   -9.0730   28.6745 C   0  0  0  0  0  0  0  0  0  0  0  0
  1  7  4  0
  1 22  4  0
  2 17  4  0
  2 20  4  0
  2 28  4  0
  3  6  1  0
  3 19  1  0
  4 19  1  0
  4 26  1  0
  5 17  4  0
  5 18  4  0
  6 20  1  0
  6 26  1  0
  7 24  4  0
  8 15  4  0
  8 24  4  0
  9 14  4  0
  9 21  4  0
 10 12  4  0
 10 27  4  0
 11 12  4  0
 11 23  4  0
 13 23  4  0
 13 27  4  0
 14 20  4  0
 15 22  4  0
 16 18  4  0
 16 25  2  0
 16 28  4  0
 21 28  4  0
 24 27  1  0
M  END
$$$$

 Created by Python create_sdf_string function

 28 31  0  0  0  0  0  0  0  0999 V2000
   -1.0054  -13.0622   19.1198 C   0  0  0  0  0  0  0  0  0  0  0  0
    3.1478   -8.5360   28.5161 C   0  0  0  0  0  0  0  0  0  0  0  0
    0.5798   -7.1906   27.9330 C   0  0  0  0  0  0  0  0  0  0  0  0
    0.3978   -5.1561   26.6955 C   0  0  0  0  0  0  0  0  0  0  0  0
    2.3063  -10.0533   30.0125 C   0  0  0  0  0  0  0  0  0  0  0  0
    1.8591   -6.8254   27.4685 N   0  0  0  0  0  0  0  0  0  0  0  0
   -0.2167  -12.1055   18.5568 C   0  0  0  0  0  0  0  0  0  0  0  0
   -2.0661  -10.6994   18.1916 C   0  0  0  0  0  0  0  0  0  0  0  0
    5.2703   -7.5691   27.1123 C   0  0  0  0  0  0  0  0  0  0  0  0
    1.6204   -9.9887   17.2935 C   0  0  0  0  0  0  0  0  0  0  0  0
    1.8931   -7.9265   16.2047 C   0  0  0  0  0  0  0  0  0  0  0  0
    2.4396   -9.0801   16.7132 C   0  0  0  0  0  0  0  0  0  0  0  0
   -0.2575   -8.6234   16.8582 C   0  0  0  0  0  0  0  0  0  0  0  0
    4.0614   -7.0367   27.0106 N   0  0  0  0  0  0  0  0  0  0  0  0
   -2.9133  -11.6279   18.7578 C   0  0  0  0  0  0  0  0  0  0  0  0
    4.5688  -10.1291   29.5758 C   0  0  0  0  0  0  0  0  0  0  0  0
    2.1008   -9.0410   29.1852 N   0  0  0  0  0  0  0  0  0  0  0  0
    3.4829  -10.5697   30.2091 N   0  0  0  0  0  0  0  0  0  0  0  0
   -0.3363   -6.1172   27.5628 C   0  0  0  0  0  0  0  0  0  0  0  0
    3.0331   -7.4400   27.6362 C   0  0  0  0  0  0  0  0  0  0  0  0
    5.4553   -8.5933   27.9644 C   0  0  0  0  0  0  0  0  0  0  0  0
   -2.3870  -12.8440   19.2512 C   0  0  0  0  0  0  0  0  0  0  0  0
    0.5331   -7.6964   16.2751 C   0  0  0  0  0  0  0  0  0  0  0  0
   -0.6740  -10.8737   18.0482 C   0  0  0  0  0  0  0  0  0  0  0  0
    5.6751  -10.5870   29.7637 O   0  0  0  0  0  0  0  0  0  0  0  0
    1.7612   -5.6483   26.7172 C   0  0  0  0  0  0  0  0  0  0  0  0
    0.2221   -9.8326   17.4055 C   0  0  0  0  0  0  0  0  0  0  0  0
    4.3850   -9.0730   28.6745 C   0  0  0  0  0  0  0  0  0  0  0  0
  1  7  4  0
  1 22  4  0
  2 17  4  0
  2 20  4  0
  2 28  4  0
  3  6  1  0
  3 19  1  0
  4 19  1  0
  4 26  1  0
  5 17  4  0
  5 18  4  0
  6 20  1  0
  6 26  1  0
  7 24  4  0
  8 15  4  0
  8 24  4  0
  9 14  4  0
  9 21  4  0
 10 12  4  0
 10 27  4  0
 11 12  4  0
 11 23  4  0
 13 23  4  0
 13 27  4  0
 14 20  4  0
 15 22  4  0
 16 18  4  0
 16 25  2  0
 16 28  4  0
 21 28  4  0
 24 27  1  0
M  END
$$$$

 Created by Python create_sdf_string function

 28 31  0  0  0  0  0  0  0  0999 V2000
   -1.0054  -13.0622   19.1198 C   0  0  0  0  0  0  0  0  0  0  0  0
    3.1478   -8.5360   28.5161 C   0  0  0  0  0  0  0  0  0  0  0  0
    0.5798   -7.1906   27.9330 C   0  0  0  0  0  0  0  0  0  0  0  0
    0.3978   -5.1561   26.6955 C   0  0  0  0  0  0  0  0  0  0  0  0
    2.3063  -10.0533   30.0125 C   0  0  0  0  0  0  0  0  0  0  0  0
    1.8591   -6.8254   27.4685 N   0  0  0  0  0  0  0  0  0  0  0  0
   -0.2167  -12.1055   18.5568 C   0  0  0  0  0  0  0  0  0  0  0  0
   -2.0661  -10.6994   18.1916 C   0  0  0  0  0  0  0  0  0  0  0  0
    5.2703   -7.5691   27.1123 C   0  0  0  0  0  0  0  0  0  0  0  0
    1.6204   -9.9887   17.2935 C   0  0  0  0  0  0  0  0  0  0  0  0
    1.8931   -7.9265   16.2047 C   0  0  0  0  0  0  0  0  0  0  0  0
    2.4396   -9.0801   16.7132 C   0  0  0  0  0  0  0  0  0  0  0  0
   -0.2575   -8.6234   16.8582 C   0  0  0  0  0  0  0  0  0  0  0  0
    4.0614   -7.0367   27.0106 N   0  0  0  0  0  0  0  0  0  0  0  0
   -2.9133  -11.6279   18.7578 C   0  0  0  0  0  0  0  0  0  0  0  0
    4.5688  -10.1291   29.5758 C   0  0  0  0  0  0  0  0  0  0  0  0
    2.1008   -9.0410   29.1852 N   0  0  0  0  0  0  0  0  0  0  0  0
    3.4829  -10.5697   30.2091 N   0  0  0  0  0  0  0  0  0  0  0  0
   -0.3363   -6.1172   27.5628 C   0  0  0  0  0  0  0  0  0  0  0  0
    3.0331   -7.4400   27.6362 C   0  0  0  0  0  0  0  0  0  0  0  0
    5.4553   -8.5933   27.9644 C   0  0  0  0  0  0  0  0  0  0  0  0
   -2.3870  -12.8440   19.2512 C   0  0  0  0  0  0  0  0  0  0  0  0
    0.5331   -7.6964   16.2751 C   0  0  0  0  0  0  0  0  0  0  0  0
   -0.6740  -10.8737   18.0482 C   0  0  0  0  0  0  0  0  0  0  0  0
    5.6751  -10.5870   29.7637 O   0  0  0  0  0  0  0  0  0  0  0  0
    1.7612   -5.6483   26.7172 C   0  0  0  0  0  0  0  0  0  0  0  0
    0.2221   -9.8326   17.4055 C   0  0  0  0  0  0  0  0  0  0  0  0
    4.3850   -9.0730   28.6745 C   0  0  0  0  0  0  0  0  0  0  0  0
  1  7  4  0
  1 22  4  0
  2 17  4  0
  2 20  4  0
  2 28  4  0
  3  6  1  0
  3 19  1  0
  4 19  1  0
  4 26  1  0
  5 17  4  0
  5 18  4  0
  6 20  1  0
  6 26  1  0
  7 24  4  0
  8 15  4  0
  8 24  4  0
  9 14  4  0
  9 21  4  0
 10 12  4  0
 10 27  4  0
 11 12  4  0
 11 23  4  0
 13 23  4  0
 13 27  4  0
 14 20  4  0
 15 22  4  0
 16 18  4  0
 16 25  2  0
 16 28  4  0
 21 28  4  0
 24 27  1  0
M  END
$$$$

 Created by Python create_sdf_string function

 28 31  0  0  0  0  0  0  0  0999 V2000
   -1.0054  -13.0622   19.1198 C   0  0  0  0  0  0  0  0  0  0  0  0
    3.1478   -8.5360   28.5161 C   0  0  0  0  0  0  0  0  0  0  0  0
    0.5798   -7.1906   27.9330 C   0  0  0  0  0  0  0  0  0  0  0  0
    0.3978   -5.1561   26.6955 C   0  0  0  0  0  0  0  0  0  0  0  0
    2.3063  -10.0533   30.0125 C   0  0  0  0  0  0  0  0  0  0  0  0
    1.8591   -6.8254   27.4685 N   0  0  0  0  0  0  0  0  0  0  0  0
   -0.2167  -12.1055   18.5568 C   0  0  0  0  0  0  0  0  0  0  0  0
   -2.0661  -10.6994   18.1916 C   0  0  0  0  0  0  0  0  0  0  0  0
    5.2703   -7.5691   27.1123 C   0  0  0  0  0  0  0  0  0  0  0  0
    1.6204   -9.9887   17.2935 C   0  0  0  0  0  0  0  0  0  0  0  0
    1.8931   -7.9265   16.2047 C   0  0  0  0  0  0  0  0  0  0  0  0
    2.4396   -9.0801   16.7132 C   0  0  0  0  0  0  0  0  0  0  0  0
   -0.2575   -8.6234   16.8582 C   0  0  0  0  0  0  0  0  0  0  0  0
    4.0614   -7.0367   27.0106 N   0  0  0  0  0  0  0  0  0  0  0  0
   -2.9133  -11.6279   18.7578 C   0  0  0  0  0  0  0  0  0  0  0  0
    4.5688  -10.1291   29.5758 C   0  0  0  0  0  0  0  0  0  0  0  0
    2.1008   -9.0410   29.1852 N   0  0  0  0  0  0  0  0  0  0  0  0
    3.4829  -10.5697   30.2091 N   0  0  0  0  0  0  0  0  0  0  0  0
   -0.3363   -6.1172   27.5628 C   0  0  0  0  0  0  0  0  0  0  0  0
    3.0331   -7.4400   27.6362 C   0  0  0  0  0  0  0  0  0  0  0  0
    5.4553   -8.5933   27.9644 C   0  0  0  0  0  0  0  0  0  0  0  0
   -2.3870  -12.8440   19.2512 C   0  0  0  0  0  0  0  0  0  0  0  0
    0.5331   -7.6964   16.2751 C   0  0  0  0  0  0  0  0  0  0  0  0
   -0.6740  -10.8737   18.0482 C   0  0  0  0  0  0  0  0  0  0  0  0
    5.6751  -10.5870   29.7637 O   0  0  0  0  0  0  0  0  0  0  0  0
    1.7612   -5.6483   26.7172 C   0  0  0  0  0  0  0  0  0  0  0  0
    0.2221   -9.8326   17.4055 C   0  0  0  0  0  0  0  0  0  0  0  0
    4.3850   -9.0730   28.6745 C   0  0  0  0  0  0  0  0  0  0  0  0
  1  7  4  0
  1 22  4  0
  2 17  4  0
  2 20  4  0
  2 28  4  0
  3  6  1  0
  3 19  1  0
  4 19  1  0
  4 26  1  0
  5 17  4  0
  5 18  4  0
  6 20  1  0
  6 26  1  0
  7 24  4  0
  8 15  4  0
  8 24  4  0
  9 14  4  0
  9 21  4  0
 10 12  4  0
 10 27  4  0
 11 12  4  0
 11 23  4  0
 13 23  4  0
 13 27  4  0
 14 20  4  0
 15 22  4  0
 16 18  4  0
 16 25  2  0
 16 28  4  0
 21 28  4  0
 24 27  1  0
M  END
$$$$

 Created by Python create_sdf_string function

 28 31  0  0  0  0  0  0  0  0999 V2000
   -1.0054  -13.0622   19.1198 C   0  0  0  0  0  0  0  0  0  0  0  0
    3.1478   -8.5360   28.5161 C   0  0  0  0  0  0  0  0  0  0  0  0
    0.5798   -7.1906   27.9330 C   0  0  0  0  0  0  0  0  0  0  0  0
    0.3978   -5.1561   26.6955 C   0  0  0  0  0  0  0  0  0  0  0  0
    2.3063  -10.0533   30.0125 C   0  0  0  0  0  0  0  0  0  0  0  0
    1.8591   -6.8254   27.4685 N   0  0  0  0  0  0  0  0  0  0  0  0
   -0.2167  -12.1055   18.5568 C   0  0  0  0  0  0  0  0  0  0  0  0
   -2.0661  -10.6994   18.1916 C   0  0  0  0  0  0  0  0  0  0  0  0
    5.2703   -7.5691   27.1123 C   0  0  0  0  0  0  0  0  0  0  0  0
    1.6204   -9.9887   17.2935 C   0  0  0  0  0  0  0  0  0  0  0  0
    1.8931   -7.9265   16.2047 C   0  0  0  0  0  0  0  0  0  0  0  0
    2.4396   -9.0801   16.7132 C   0  0  0  0  0  0  0  0  0  0  0  0
   -0.2575   -8.6234   16.8582 C   0  0  0  0  0  0  0  0  0  0  0  0
    4.0614   -7.0367   27.0106 N   0  0  0  0  0  0  0  0  0  0  0  0
   -2.9133  -11.6279   18.7578 C   0  0  0  0  0  0  0  0  0  0  0  0
    4.5688  -10.1291   29.5758 C   0  0  0  0  0  0  0  0  0  0  0  0
    2.1008   -9.0410   29.1852 N   0  0  0  0  0  0  0  0  0  0  0  0
    3.4829  -10.5697   30.2091 N   0  0  0  0  0  0  0  0  0  0  0  0
   -0.3363   -6.1172   27.5628 C   0  0  0  0  0  0  0  0  0  0  0  0
    3.0331   -7.4400   27.6362 C   0  0  0  0  0  0  0  0  0  0  0  0
    5.4553   -8.5933   27.9644 C   0  0  0  0  0  0  0  0  0  0  0  0
   -2.3870  -12.8440   19.2512 C   0  0  0  0  0  0  0  0  0  0  0  0
    0.5331   -7.6964   16.2751 C   0  0  0  0  0  0  0  0  0  0  0  0
   -0.6740  -10.8737   18.0482 C   0  0  0  0  0  0  0  0  0  0  0  0
    5.6751  -10.5870   29.7637 O   0  0  0  0  0  0  0  0  0  0  0  0
    1.7612   -5.6483   26.7172 C   0  0  0  0  0  0  0  0  0  0  0  0
    0.2221   -9.8326   17.4055 C   0  0  0  0  0  0  0  0  0  0  0  0
    4.3850   -9.0730   28.6745 C   0  0  0  0  0  0  0  0  0  0  0  0
  1  7  4  0
  1 22  4  0
  2 17  4  0
  2 20  4  0
  2 28  4  0
  3  6  1  0
  3 19  1  0
  4 19  1  0
  4 26  1  0
  5 17  4  0
  5 18  4  0
  6 20  1  0
  6 26  1  0
  7 24  4  0
  8 15  4  0
  8 24  4  0
  9 14  4  0
  9 21  4  0
 10 12  4  0
 10 27  4  0
 11 12  4  0
 11 23  4  0
 13 23  4  0
 13 27  4  0
 14 20  4  0
 15 22  4  0
 16 18  4  0
 16 25  2  0
 16 28  4  0
 21 28  4  0
 24 27  1  0
M  END
$$$$

 Created by Python create_sdf_string function

 28 31  0  0  0  0  0  0  0  0999 V2000
   -1.0054  -13.0622   19.1198 C   0  0  0  0  0  0  0  0  0  0  0  0
    3.1478   -8.5360   28.5161 C   0  0  0  0  0  0  0  0  0  0  0  0
    0.5798   -7.1906   27.9330 C   0  0  0  0  0  0  0  0  0  0  0  0
    0.3978   -5.1561   26.6955 C   0  0  0  0  0  0  0  0  0  0  0  0
    2.3063  -10.0533   30.0125 C   0  0  0  0  0  0  0  0  0  0  0  0
    1.8591   -6.8254   27.4685 N   0  0  0  0  0  0  0  0  0  0  0  0
   -0.2167  -12.1055   18.5568 C   0  0  0  0  0  0  0  0  0  0  0  0
   -2.0661  -10.6994   18.1916 C   0  0  0  0  0  0  0  0  0  0  0  0
    5.2703   -7.5691   27.1123 C   0  0  0  0  0  0  0  0  0  0  0  0
    1.6204   -9.9887   17.2935 C   0  0  0  0  0  0  0  0  0  0  0  0
    1.8931   -7.9265   16.2047 C   0  0  0  0  0  0  0  0  0  0  0  0
    2.4396   -9.0801   16.7132 C   0  0  0  0  0  0  0  0  0  0  0  0
   -0.2575   -8.6234   16.8582 C   0  0  0  0  0  0  0  0  0  0  0  0
    4.0614   -7.0367   27.0106 N   0  0  0  0  0  0  0  0  0  0  0  0
   -2.9133  -11.6279   18.7578 C   0  0  0  0  0  0  0  0  0  0  0  0
    4.5688  -10.1291   29.5758 C   0  0  0  0  0  0  0  0  0  0  0  0
    2.1008   -9.0410   29.1852 N   0  0  0  0  0  0  0  0  0  0  0  0
    3.4829  -10.5697   30.2091 N   0  0  0  0  0  0  0  0  0  0  0  0
   -0.3363   -6.1172   27.5628 C   0  0  0  0  0  0  0  0  0  0  0  0
    3.0331   -7.4400   27.6362 C   0  0  0  0  0  0  0  0  0  0  0  0
    5.4553   -8.5933   27.9644 C   0  0  0  0  0  0  0  0  0  0  0  0
   -2.3870  -12.8440   19.2512 C   0  0  0  0  0  0  0  0  0  0  0  0
    0.5331   -7.6964   16.2751 C   0  0  0  0  0  0  0  0  0  0  0  0
   -0.6740  -10.8737   18.0482 C   0  0  0  0  0  0  0  0  0  0  0  0
    5.6751  -10.5870   29.7637 O   0  0  0  0  0  0  0  0  0  0  0  0
    1.7612   -5.6483   26.7172 C   0  0  0  0  0  0  0  0  0  0  0  0
    0.2221   -9.8326   17.4055 C   0  0  0  0  0  0  0  0  0  0  0  0
    4.3850   -9.0730   28.6745 C   0  0  0  0  0  0  0  0  0  0  0  0
  1  7  4  0
  1 22  4  0
  2 17  4  0
  2 20  4  0
  2 28  4  0
  3  6  1  0
  3 19  1  0
  4 19  1  0
  4 26  1  0
  5 17  4  0
  5 18  4  0
  6 20  1  0
  6 26  1  0
  7 24  4  0
  8 15  4  0
  8 24  4  0
  9 14  4  0
  9 21  4  0
 10 12  4  0
 10 27  4  0
 11 12  4  0
 11 23  4  0
 13 23  4  0
 13 27  4  0
 14 20  4  0
 15 22  4  0
 16 18  4  0
 16 25  2  0
 16 28  4  0
 21 28  4  0
 24 27  1  0
M  END
$$$$

 Created by Python create_sdf_string function

 28 31  0  0  0  0  0  0  0  0999 V2000
   -1.0054  -13.0622   19.1198 C   0  0  0  0  0  0  0  0  0  0  0  0
    3.1478   -8.5360   28.5161 C   0  0  0  0  0  0  0  0  0  0  0  0
    0.5798   -7.1906   27.9330 C   0  0  0  0  0  0  0  0  0  0  0  0
    0.3978   -5.1561   26.6955 C   0  0  0  0  0  0  0  0  0  0  0  0
    2.3063  -10.0533   30.0125 C   0  0  0  0  0  0  0  0  0  0  0  0
    1.8591   -6.8254   27.4685 N   0  0  0  0  0  0  0  0  0  0  0  0
   -0.2167  -12.1055   18.5568 C   0  0  0  0  0  0  0  0  0  0  0  0
   -2.0661  -10.6994   18.1916 C   0  0  0  0  0  0  0  0  0  0  0  0
    5.2703   -7.5691   27.1123 C   0  0  0  0  0  0  0  0  0  0  0  0
    1.6204   -9.9887   17.2935 C   0  0  0  0  0  0  0  0  0  0  0  0
    1.8931   -7.9265   16.2047 C   0  0  0  0  0  0  0  0  0  0  0  0
    2.4396   -9.0801   16.7132 C   0  0  0  0  0  0  0  0  0  0  0  0
   -0.2575   -8.6234   16.8582 C   0  0  0  0  0  0  0  0  0  0  0  0
    4.0614   -7.0367   27.0106 N   0  0  0  0  0  0  0  0  0  0  0  0
   -2.9133  -11.6279   18.7578 C   0  0  0  0  0  0  0  0  0  0  0  0
    4.5688  -10.1291   29.5758 C   0  0  0  0  0  0  0  0  0  0  0  0
    2.1008   -9.0410   29.1852 N   0  0  0  0  0  0  0  0  0  0  0  0
    3.4829  -10.5697   30.2091 N   0  0  0  0  0  0  0  0  0  0  0  0
   -0.3363   -6.1172   27.5628 C   0  0  0  0  0  0  0  0  0  0  0  0
    3.0331   -7.4400   27.6362 C   0  0  0  0  0  0  0  0  0  0  0  0
    5.4553   -8.5933   27.9644 C   0  0  0  0  0  0  0  0  0  0  0  0
   -2.3870  -12.8440   19.2512 C   0  0  0  0  0  0  0  0  0  0  0  0
    0.5331   -7.6964   16.2751 C   0  0  0  0  0  0  0  0  0  0  0  0
   -0.6740  -10.8737   18.0482 C   0  0  0  0  0  0  0  0  0  0  0  0
    5.6751  -10.5870   29.7637 O   0  0  0  0  0  0  0  0  0  0  0  0
    1.7612   -5.6483   26.7172 C   0  0  0  0  0  0  0  0  0  0  0  0
    0.2221   -9.8326   17.4055 C   0  0  0  0  0  0  0  0  0  0  0  0
    4.3850   -9.0730   28.6745 C   0  0  0  0  0  0  0  0  0  0  0  0
  1  7  4  0
  1 22  4  0
  2 17  4  0
  2 20  4  0
  2 28  4  0
  3  6  1  0
  3 19  1  0
  4 19  1  0
  4 26  1  0
  5 17  4  0
  5 18  4  0
  6 20  1  0
  6 26  1  0
  7 24  4  0
  8 15  4  0
  8 24  4  0
  9 14  4  0
  9 21  4  0
 10 12  4  0
 10 27  4  0
 11 12  4  0
 11 23  4  0
 13 23  4  0
 13 27  4  0
 14 20  4  0
 15 22  4  0
 16 18  4  0
 16 25  2  0
 16 28  4  0
 21 28  4  0
 24 27  1  0
M  END
$$$$

 Created by Python create_sdf_string function

 28 31  0  0  0  0  0  0  0  0999 V2000
   -1.0054  -13.0622   19.1198 C   0  0  0  0  0  0  0  0  0  0  0  0
    3.1478   -8.5360   28.5161 C   0  0  0  0  0  0  0  0  0  0  0  0
    0.5798   -7.1906   27.9330 C   0  0  0  0  0  0  0  0  0  0  0  0
    0.3978   -5.1561   26.6955 C   0  0  0  0  0  0  0  0  0  0  0  0
    2.3063  -10.0533   30.0125 C   0  0  0  0  0  0  0  0  0  0  0  0
    1.8591   -6.8254   27.4685 N   0  0  0  0  0  0  0  0  0  0  0  0
   -0.2167  -12.1055   18.5568 C   0  0  0  0  0  0  0  0  0  0  0  0
   -2.0661  -10.6994   18.1916 C   0  0  0  0  0  0  0  0  0  0  0  0
    5.2703   -7.5691   27.1123 C   0  0  0  0  0  0  0  0  0  0  0  0
    1.6204   -9.9887   17.2935 C   0  0  0  0  0  0  0  0  0  0  0  0
    1.8931   -7.9265   16.2047 C   0  0  0  0  0  0  0  0  0  0  0  0
    2.4396   -9.0801   16.7132 C   0  0  0  0  0  0  0  0  0  0  0  0
   -0.2575   -8.6234   16.8582 C   0  0  0  0  0  0  0  0  0  0  0  0
    4.0614   -7.0367   27.0106 N   0  0  0  0  0  0  0  0  0  0  0  0
   -2.9133  -11.6279   18.7578 C   0  0  0  0  0  0  0  0  0  0  0  0
    4.5688  -10.1291   29.5758 C   0  0  0  0  0  0  0  0  0  0  0  0
    2.1008   -9.0410   29.1852 N   0  0  0  0  0  0  0  0  0  0  0  0
    3.4829  -10.5697   30.2091 N   0  0  0  0  0  0  0  0  0  0  0  0
   -0.3363   -6.1172   27.5628 C   0  0  0  0  0  0  0  0  0  0  0  0
    3.0331   -7.4400   27.6362 C   0  0  0  0  0  0  0  0  0  0  0  0
    5.4553   -8.5933   27.9644 C   0  0  0  0  0  0  0  0  0  0  0  0
   -2.3870  -12.8440   19.2512 C   0  0  0  0  0  0  0  0  0  0  0  0
    0.5331   -7.6964   16.2751 C   0  0  0  0  0  0  0  0  0  0  0  0
   -0.6740  -10.8737   18.0482 C   0  0  0  0  0  0  0  0  0  0  0  0
    5.6751  -10.5870   29.7637 O   0  0  0  0  0  0  0  0  0  0  0  0
    1.7612   -5.6483   26.7172 C   0  0  0  0  0  0  0  0  0  0  0  0
    0.2221   -9.8326   17.4055 C   0  0  0  0  0  0  0  0  0  0  0  0
    4.3850   -9.0730   28.6745 C   0  0  0  0  0  0  0  0  0  0  0  0
  1  7  4  0
  1 22  4  0
  2 17  4  0
  2 20  4  0
  2 28  4  0
  3  6  1  0
  3 19  1  0
  4 19  1  0
  4 26  1  0
  5 17  4  0
  5 18  4  0
  6 20  1  0
  6 26  1  0
  7 24  4  0
  8 15  4  0
  8 24  4  0
  9 14  4  0
  9 21  4  0
 10 12  4  0
 10 27  4  0
 11 12  4  0
 11 23  4  0
 13 23  4  0
 13 27  4  0
 14 20  4  0
 15 22  4  0
 16 18  4  0
 16 25  2  0
 16 28  4  0
 21 28  4  0
 24 27  1  0
M  END
$$$$

 Created by Python create_sdf_string function

 28 31  0  0  0  0  0  0  0  0999 V2000
   -1.0054  -13.0622   19.1198 C   0  0  0  0  0  0  0  0  0  0  0  0
    3.1478   -8.5360   28.5161 C   0  0  0  0  0  0  0  0  0  0  0  0
    0.5798   -7.1906   27.9330 C   0  0  0  0  0  0  0  0  0  0  0  0
    0.3978   -5.1561   26.6955 C   0  0  0  0  0  0  0  0  0  0  0  0
    2.3063  -10.0533   30.0125 C   0  0  0  0  0  0  0  0  0  0  0  0
    1.8591   -6.8254   27.4685 N   0  0  0  0  0  0  0  0  0  0  0  0
   -0.2167  -12.1055   18.5568 C   0  0  0  0  0  0  0  0  0  0  0  0
   -2.0661  -10.6994   18.1916 C   0  0  0  0  0  0  0  0  0  0  0  0
    5.2703   -7.5691   27.1123 C   0  0  0  0  0  0  0  0  0  0  0  0
    1.6204   -9.9887   17.2935 C   0  0  0  0  0  0  0  0  0  0  0  0
    1.8931   -7.9265   16.2047 C   0  0  0  0  0  0  0  0  0  0  0  0
    2.4396   -9.0801   16.7132 C   0  0  0  0  0  0  0  0  0  0  0  0
   -0.2575   -8.6234   16.8582 C   0  0  0  0  0  0  0  0  0  0  0  0
    4.0614   -7.0367   27.0106 N   0  0  0  0  0  0  0  0  0  0  0  0
   -2.9133  -11.6279   18.7578 C   0  0  0  0  0  0  0  0  0  0  0  0
    4.5688  -10.1291   29.5758 C   0  0  0  0  0  0  0  0  0  0  0  0
    2.1008   -9.0410   29.1852 N   0  0  0  0  0  0  0  0  0  0  0  0
    3.4829  -10.5697   30.2091 N   0  0  0  0  0  0  0  0  0  0  0  0
   -0.3363   -6.1172   27.5628 C   0  0  0  0  0  0  0  0  0  0  0  0
    3.0331   -7.4400   27.6362 C   0  0  0  0  0  0  0  0  0  0  0  0
    5.4553   -8.5933   27.9644 C   0  0  0  0  0  0  0  0  0  0  0  0
   -2.3870  -12.8440   19.2512 C   0  0  0  0  0  0  0  0  0  0  0  0
    0.5331   -7.6964   16.2751 C   0  0  0  0  0  0  0  0  0  0  0  0
   -0.6740  -10.8737   18.0482 C   0  0  0  0  0  0  0  0  0  0  0  0
    5.6751  -10.5870   29.7637 O   0  0  0  0  0  0  0  0  0  0  0  0
    1.7612   -5.6483   26.7172 C   0  0  0  0  0  0  0  0  0  0  0  0
    0.2221   -9.8326   17.4055 C   0  0  0  0  0  0  0  0  0  0  0  0
    4.3850   -9.0730   28.6745 C   0  0  0  0  0  0  0  0  0  0  0  0
  1  7  4  0
  1 22  4  0
  2 17  4  0
  2 20  4  0
  2 28  4  0
  3  6  1  0
  3 19  1  0
  4 19  1  0
  4 26  1  0
  5 17  4  0
  5 18  4  0
  6 20  1  0
  6 26  1  0
  7 24  4  0
  8 15  4  0
  8 24  4  0
  9 14  4  0
  9 21  4  0
 10 12  4  0
 10 27  4  0
 11 12  4  0
 11 23  4  0
 13 23  4  0
 13 27  4  0
 14 20  4  0
 15 22  4  0
 16 18  4  0
 16 25  2  0
 16 28  4  0
 21 28  4  0
 24 27  1  0
M  END
$$$$

 Created by Python create_sdf_string function

 28 31  0  0  0  0  0  0  0  0999 V2000
   -1.0054  -13.0622   19.1198 C   0  0  0  0  0  0  0  0  0  0  0  0
    3.1478   -8.5360   28.5161 C   0  0  0  0  0  0  0  0  0  0  0  0
    0.5798   -7.1906   27.9330 C   0  0  0  0  0  0  0  0  0  0  0  0
    0.3978   -5.1561   26.6955 C   0  0  0  0  0  0  0  0  0  0  0  0
    2.3063  -10.0533   30.0125 C   0  0  0  0  0  0  0  0  0  0  0  0
    1.8591   -6.8254   27.4685 N   0  0  0  0  0  0  0  0  0  0  0  0
   -0.2167  -12.1055   18.5568 C   0  0  0  0  0  0  0  0  0  0  0  0
   -2.0661  -10.6994   18.1916 C   0  0  0  0  0  0  0  0  0  0  0  0
    5.2703   -7.5691   27.1123 C   0  0  0  0  0  0  0  0  0  0  0  0
    1.6204   -9.9887   17.2935 C   0  0  0  0  0  0  0  0  0  0  0  0
    1.8931   -7.9265   16.2047 C   0  0  0  0  0  0  0  0  0  0  0  0
    2.4396   -9.0801   16.7132 C   0  0  0  0  0  0  0  0  0  0  0  0
   -0.2575   -8.6234   16.8582 C   0  0  0  0  0  0  0  0  0  0  0  0
    4.0614   -7.0367   27.0106 N   0  0  0  0  0  0  0  0  0  0  0  0
   -2.9133  -11.6279   18.7578 C   0  0  0  0  0  0  0  0  0  0  0  0
    4.5688  -10.1291   29.5758 C   0  0  0  0  0  0  0  0  0  0  0  0
    2.1008   -9.0410   29.1852 N   0  0  0  0  0  0  0  0  0  0  0  0
    3.4829  -10.5697   30.2091 N   0  0  0  0  0  0  0  0  0  0  0  0
   -0.3363   -6.1172   27.5628 C   0  0  0  0  0  0  0  0  0  0  0  0
    3.0331   -7.4400   27.6362 C   0  0  0  0  0  0  0  0  0  0  0  0
    5.4553   -8.5933   27.9644 C   0  0  0  0  0  0  0  0  0  0  0  0
   -2.3870  -12.8440   19.2512 C   0  0  0  0  0  0  0  0  0  0  0  0
    0.5331   -7.6964   16.2751 C   0  0  0  0  0  0  0  0  0  0  0  0
   -0.6740  -10.8737   18.0482 C   0  0  0  0  0  0  0  0  0  0  0  0
    5.6751  -10.5870   29.7637 O   0  0  0  0  0  0  0  0  0  0  0  0
    1.7612   -5.6483   26.7172 C   0  0  0  0  0  0  0  0  0  0  0  0
    0.2221   -9.8326   17.4055 C   0  0  0  0  0  0  0  0  0  0  0  0
    4.3850   -9.0730   28.6745 C   0  0  0  0  0  0  0  0  0  0  0  0
  1  7  4  0
  1 22  4  0
  2 17  4  0
  2 20  4  0
  2 28  4  0
  3  6  1  0
  3 19  1  0
  4 19  1  0
  4 26  1  0
  5 17  4  0
  5 18  4  0
  6 20  1  0
  6 26  1  0
  7 24  4  0
  8 15  4  0
  8 24  4  0
  9 14  4  0
  9 21  4  0
 10 12  4  0
 10 27  4  0
 11 12  4  0
 11 23  4  0
 13 23  4  0
 13 27  4  0
 14 20  4  0
 15 22  4  0
 16 18  4  0
 16 25  2  0
 16 28  4  0
 21 28  4  0
 24 27  1  0
M  END
$$$$

 Created by Python create_sdf_string function

 28 31  0  0  0  0  0  0  0  0999 V2000
   -1.0054  -13.0622   19.1198 C   0  0  0  0  0  0  0  0  0  0  0  0
    3.1478   -8.5360   28.5161 C   0  0  0  0  0  0  0  0  0  0  0  0
    0.5798   -7.1906   27.9330 C   0  0  0  0  0  0  0  0  0  0  0  0
    0.3978   -5.1561   26.6955 C   0  0  0  0  0  0  0  0  0  0  0  0
    2.3063  -10.0533   30.0125 C   0  0  0  0  0  0  0  0  0  0  0  0
    1.8591   -6.8254   27.4685 N   0  0  0  0  0  0  0  0  0  0  0  0
   -0.2167  -12.1055   18.5568 C   0  0  0  0  0  0  0  0  0  0  0  0
   -2.0661  -10.6994   18.1916 C   0  0  0  0  0  0  0  0  0  0  0  0
    5.2703   -7.5691   27.1123 C   0  0  0  0  0  0  0  0  0  0  0  0
    1.6204   -9.9887   17.2935 C   0  0  0  0  0  0  0  0  0  0  0  0
    1.8931   -7.9265   16.2047 C   0  0  0  0  0  0  0  0  0  0  0  0
    2.4396   -9.0801   16.7132 C   0  0  0  0  0  0  0  0  0  0  0  0
   -0.2575   -8.6234   16.8582 C   0  0  0  0  0  0  0  0  0  0  0  0
    4.0614   -7.0367   27.0106 N   0  0  0  0  0  0  0  0  0  0  0  0
   -2.9133  -11.6279   18.7578 C   0  0  0  0  0  0  0  0  0  0  0  0
    4.5688  -10.1291   29.5758 C   0  0  0  0  0  0  0  0  0  0  0  0
    2.1008   -9.0410   29.1852 N   0  0  0  0  0  0  0  0  0  0  0  0
    3.4829  -10.5697   30.2091 N   0  0  0  0  0  0  0  0  0  0  0  0
   -0.3363   -6.1172   27.5628 C   0  0  0  0  0  0  0  0  0  0  0  0
    3.0331   -7.4400   27.6362 C   0  0  0  0  0  0  0  0  0  0  0  0
    5.4553   -8.5933   27.9644 C   0  0  0  0  0  0  0  0  0  0  0  0
   -2.3870  -12.8440   19.2512 C   0  0  0  0  0  0  0  0  0  0  0  0
    0.5331   -7.6964   16.2751 C   0  0  0  0  0  0  0  0  0  0  0  0
   -0.6740  -10.8737   18.0482 C   0  0  0  0  0  0  0  0  0  0  0  0
    5.6751  -10.5870   29.7637 O   0  0  0  0  0  0  0  0  0  0  0  0
    1.7612   -5.6483   26.7172 C   0  0  0  0  0  0  0  0  0  0  0  0
    0.2221   -9.8326   17.4055 C   0  0  0  0  0  0  0  0  0  0  0  0
    4.3850   -9.0730   28.6745 C   0  0  0  0  0  0  0  0  0  0  0  0
  1  7  4  0
  1 22  4  0
  2 17  4  0
  2 20  4  0
  2 28  4  0
  3  6  1  0
  3 19  1  0
  4 19  1  0
  4 26  1  0
  5 17  4  0
  5 18  4  0
  6 20  1  0
  6 26  1  0
  7 24  4  0
  8 15  4  0
  8 24  4  0
  9 14  4  0
  9 21  4  0
 10 12  4  0
 10 27  4  0
 11 12  4  0
 11 23  4  0
 13 23  4  0
 13 27  4  0
 14 20  4  0
 15 22  4  0
 16 18  4  0
 16 25  2  0
 16 28  4  0
 21 28  4  0
 24 27  1  0
M  END
$$$$

 Created by Python create_sdf_string function

 28 31  0  0  0  0  0  0  0  0999 V2000
   -1.0054  -13.0622   19.1198 C   0  0  0  0  0  0  0  0  0  0  0  0
    3.1478   -8.5360   28.5161 C   0  0  0  0  0  0  0  0  0  0  0  0
    0.5798   -7.1906   27.9330 C   0  0  0  0  0  0  0  0  0  0  0  0
    0.3978   -5.1561   26.6955 C   0  0  0  0  0  0  0  0  0  0  0  0
    2.3063  -10.0533   30.0125 C   0  0  0  0  0  0  0  0  0  0  0  0
    1.8591   -6.8254   27.4685 N   0  0  0  0  0  0  0  0  0  0  0  0
   -0.2167  -12.1055   18.5568 C   0  0  0  0  0  0  0  0  0  0  0  0
   -2.0661  -10.6994   18.1916 C   0  0  0  0  0  0  0  0  0  0  0  0
    5.2703   -7.5691   27.1123 C   0  0  0  0  0  0  0  0  0  0  0  0
    1.6204   -9.9887   17.2935 C   0  0  0  0  0  0  0  0  0  0  0  0
    1.8931   -7.9265   16.2047 C   0  0  0  0  0  0  0  0  0  0  0  0
    2.4396   -9.0801   16.7132 C   0  0  0  0  0  0  0  0  0  0  0  0
   -0.2575   -8.6234   16.8582 C   0  0  0  0  0  0  0  0  0  0  0  0
    4.0614   -7.0367   27.0106 N   0  0  0  0  0  0  0  0  0  0  0  0
   -2.9133  -11.6279   18.7578 C   0  0  0  0  0  0  0  0  0  0  0  0
    4.5688  -10.1291   29.5758 C   0  0  0  0  0  0  0  0  0  0  0  0
    2.1008   -9.0410   29.1852 N   0  0  0  0  0  0  0  0  0  0  0  0
    3.4829  -10.5697   30.2091 N   0  0  0  0  0  0  0  0  0  0  0  0
   -0.3363   -6.1172   27.5628 C   0  0  0  0  0  0  0  0  0  0  0  0
    3.0331   -7.4400   27.6362 C   0  0  0  0  0  0  0  0  0  0  0  0
    5.4553   -8.5933   27.9644 C   0  0  0  0  0  0  0  0  0  0  0  0
   -2.3870  -12.8440   19.2512 C   0  0  0  0  0  0  0  0  0  0  0  0
    0.5331   -7.6964   16.2751 C   0  0  0  0  0  0  0  0  0  0  0  0
   -0.6740  -10.8737   18.0482 C   0  0  0  0  0  0  0  0  0  0  0  0
    5.6751  -10.5870   29.7637 O   0  0  0  0  0  0  0  0  0  0  0  0
    1.7612   -5.6483   26.7172 C   0  0  0  0  0  0  0  0  0  0  0  0
    0.2221   -9.8326   17.4055 C   0  0  0  0  0  0  0  0  0  0  0  0
    4.3850   -9.0730   28.6745 C   0  0  0  0  0  0  0  0  0  0  0  0
  1  7  4  0
  1 22  4  0
  2 17  4  0
  2 20  4  0
  2 28  4  0
  3  6  1  0
  3 19  1  0
  4 19  1  0
  4 26  1  0
  5 17  4  0
  5 18  4  0
  6 20  1  0
  6 26  1  0
  7 24  4  0
  8 15  4  0
  8 24  4  0
  9 14  4  0
  9 21  4  0
 10 12  4  0
 10 27  4  0
 11 12  4  0
 11 23  4  0
 13 23  4  0
 13 27  4  0
 14 20  4  0
 15 22  4  0
 16 18  4  0
 16 25  2  0
 16 28  4  0
 21 28  4  0
 24 27  1  0
M  END
$$$$

 Created by Python create_sdf_string function

 28 31  0  0  0  0  0  0  0  0999 V2000
   -1.0054  -13.0622   19.1198 C   0  0  0  0  0  0  0  0  0  0  0  0
    3.1478   -8.5360   28.5161 C   0  0  0  0  0  0  0  0  0  0  0  0
    0.5798   -7.1906   27.9330 C   0  0  0  0  0  0  0  0  0  0  0  0
    0.3978   -5.1561   26.6955 C   0  0  0  0  0  0  0  0  0  0  0  0
    2.3063  -10.0533   30.0125 C   0  0  0  0  0  0  0  0  0  0  0  0
    1.8591   -6.8254   27.4685 N   0  0  0  0  0  0  0  0  0  0  0  0
   -0.2167  -12.1055   18.5568 C   0  0  0  0  0  0  0  0  0  0  0  0
   -2.0661  -10.6994   18.1916 C   0  0  0  0  0  0  0  0  0  0  0  0
    5.2703   -7.5691   27.1123 C   0  0  0  0  0  0  0  0  0  0  0  0
    1.6204   -9.9887   17.2935 C   0  0  0  0  0  0  0  0  0  0  0  0
    1.8931   -7.9265   16.2047 C   0  0  0  0  0  0  0  0  0  0  0  0
    2.4396   -9.0801   16.7132 C   0  0  0  0  0  0  0  0  0  0  0  0
   -0.2575   -8.6234   16.8582 C   0  0  0  0  0  0  0  0  0  0  0  0
    4.0614   -7.0367   27.0106 N   0  0  0  0  0  0  0  0  0  0  0  0
   -2.9133  -11.6279   18.7578 C   0  0  0  0  0  0  0  0  0  0  0  0
    4.5688  -10.1291   29.5758 C   0  0  0  0  0  0  0  0  0  0  0  0
    2.1008   -9.0410   29.1852 N   0  0  0  0  0  0  0  0  0  0  0  0
    3.4829  -10.5697   30.2091 N   0  0  0  0  0  0  0  0  0  0  0  0
   -0.3363   -6.1172   27.5628 C   0  0  0  0  0  0  0  0  0  0  0  0
    3.0331   -7.4400   27.6362 C   0  0  0  0  0  0  0  0  0  0  0  0
    5.4553   -8.5933   27.9644 C   0  0  0  0  0  0  0  0  0  0  0  0
   -2.3870  -12.8440   19.2512 C   0  0  0  0  0  0  0  0  0  0  0  0
    0.5331   -7.6964   16.2751 C   0  0  0  0  0  0  0  0  0  0  0  0
   -0.6740  -10.8737   18.0482 C   0  0  0  0  0  0  0  0  0  0  0  0
    5.6751  -10.5870   29.7637 O   0  0  0  0  0  0  0  0  0  0  0  0
    1.7612   -5.6483   26.7172 C   0  0  0  0  0  0  0  0  0  0  0  0
    0.2221   -9.8326   17.4055 C   0  0  0  0  0  0  0  0  0  0  0  0
    4.3850   -9.0730   28.6745 C   0  0  0  0  0  0  0  0  0  0  0  0
  1  7  4  0
  1 22  4  0
  2 17  4  0
  2 20  4  0
  2 28  4  0
  3  6  1  0
  3 19  1  0
  4 19  1  0
  4 26  1  0
  5 17  4  0
  5 18  4  0
  6 20  1  0
  6 26  1  0
  7 24  4  0
  8 15  4  0
  8 24  4  0
  9 14  4  0
  9 21  4  0
 10 12  4  0
 10 27  4  0
 11 12  4  0
 11 23  4  0
 13 23  4  0
 13 27  4  0
 14 20  4  0
 15 22  4  0
 16 18  4  0
 16 25  2  0
 16 28  4  0
 21 28  4  0
 24 27  1  0
M  END
$$$$

 Created by Python create_sdf_string function

 28 31  0  0  0  0  0  0  0  0999 V2000
   -1.0054  -13.0622   19.1198 C   0  0  0  0  0  0  0  0  0  0  0  0
    3.1478   -8.5360   28.5161 C   0  0  0  0  0  0  0  0  0  0  0  0
    0.5798   -7.1906   27.9330 C   0  0  0  0  0  0  0  0  0  0  0  0
    0.3978   -5.1561   26.6955 C   0  0  0  0  0  0  0  0  0  0  0  0
    2.3063  -10.0533   30.0125 C   0  0  0  0  0  0  0  0  0  0  0  0
    1.8591   -6.8254   27.4685 N   0  0  0  0  0  0  0  0  0  0  0  0
   -0.2167  -12.1055   18.5568 C   0  0  0  0  0  0  0  0  0  0  0  0
   -2.0661  -10.6994   18.1916 C   0  0  0  0  0  0  0  0  0  0  0  0
    5.2703   -7.5691   27.1123 C   0  0  0  0  0  0  0  0  0  0  0  0
    1.6204   -9.9887   17.2935 C   0  0  0  0  0  0  0  0  0  0  0  0
    1.8931   -7.9265   16.2047 C   0  0  0  0  0  0  0  0  0  0  0  0
    2.4396   -9.0801   16.7132 C   0  0  0  0  0  0  0  0  0  0  0  0
   -0.2575   -8.6234   16.8582 C   0  0  0  0  0  0  0  0  0  0  0  0
    4.0614   -7.0367   27.0106 N   0  0  0  0  0  0  0  0  0  0  0  0
   -2.9133  -11.6279   18.7578 C   0  0  0  0  0  0  0  0  0  0  0  0
    4.5688  -10.1291   29.5758 C   0  0  0  0  0  0  0  0  0  0  0  0
    2.1008   -9.0410   29.1852 N   0  0  0  0  0  0  0  0  0  0  0  0
    3.4829  -10.5697   30.2091 N   0  0  0  0  0  0  0  0  0  0  0  0
   -0.3363   -6.1172   27.5628 C   0  0  0  0  0  0  0  0  0  0  0  0
    3.0331   -7.4400   27.6362 C   0  0  0  0  0  0  0  0  0  0  0  0
    5.4553   -8.5933   27.9644 C   0  0  0  0  0  0  0  0  0  0  0  0
   -2.3870  -12.8440   19.2512 C   0  0  0  0  0  0  0  0  0  0  0  0
    0.5331   -7.6964   16.2751 C   0  0  0  0  0  0  0  0  0  0  0  0
   -0.6740  -10.8737   18.0482 C   0  0  0  0  0  0  0  0  0  0  0  0
    5.6751  -10.5870   29.7637 O   0  0  0  0  0  0  0  0  0  0  0  0
    1.7612   -5.6483   26.7172 C   0  0  0  0  0  0  0  0  0  0  0  0
    0.2221   -9.8326   17.4055 C   0  0  0  0  0  0  0  0  0  0  0  0
    4.3850   -9.0730   28.6745 C   0  0  0  0  0  0  0  0  0  0  0  0
  1  7  4  0
  1 22  4  0
  2 17  4  0
  2 20  4  0
  2 28  4  0
  3  6  1  0
  3 19  1  0
  4 19  1  0
  4 26  1  0
  5 17  4  0
  5 18  4  0
  6 20  1  0
  6 26  1  0
  7 24  4  0
  8 15  4  0
  8 24  4  0
  9 14  4  0
  9 21  4  0
 10 12  4  0
 10 27  4  0
 11 12  4  0
 11 23  4  0
 13 23  4  0
 13 27  4  0
 14 20  4  0
 15 22  4  0
 16 18  4  0
 16 25  2  0
 16 28  4  0
 21 28  4  0
 24 27  1  0
M  END
$$$$

 Created by Python create_sdf_string function

 28 31  0  0  0  0  0  0  0  0999 V2000
   -1.0054  -13.0622   19.1198 C   0  0  0  0  0  0  0  0  0  0  0  0
    3.1478   -8.5360   28.5161 C   0  0  0  0  0  0  0  0  0  0  0  0
    0.5798   -7.1906   27.9330 C   0  0  0  0  0  0  0  0  0  0  0  0
    0.3978   -5.1561   26.6955 C   0  0  0  0  0  0  0  0  0  0  0  0
    2.3063  -10.0533   30.0125 C   0  0  0  0  0  0  0  0  0  0  0  0
    1.8591   -6.8254   27.4685 N   0  0  0  0  0  0  0  0  0  0  0  0
   -0.2167  -12.1055   18.5568 C   0  0  0  0  0  0  0  0  0  0  0  0
   -2.0661  -10.6994   18.1916 C   0  0  0  0  0  0  0  0  0  0  0  0
    5.2703   -7.5691   27.1123 C   0  0  0  0  0  0  0  0  0  0  0  0
    1.6204   -9.9887   17.2935 C   0  0  0  0  0  0  0  0  0  0  0  0
    1.8931   -7.9265   16.2047 C   0  0  0  0  0  0  0  0  0  0  0  0
    2.4396   -9.0801   16.7132 C   0  0  0  0  0  0  0  0  0  0  0  0
   -0.2575   -8.6234   16.8582 C   0  0  0  0  0  0  0  0  0  0  0  0
    4.0614   -7.0367   27.0106 N   0  0  0  0  0  0  0  0  0  0  0  0
   -2.9133  -11.6279   18.7578 C   0  0  0  0  0  0  0  0  0  0  0  0
    4.5688  -10.1291   29.5758 C   0  0  0  0  0  0  0  0  0  0  0  0
    2.1008   -9.0410   29.1852 N   0  0  0  0  0  0  0  0  0  0  0  0
    3.4829  -10.5697   30.2091 N   0  0  0  0  0  0  0  0  0  0  0  0
   -0.3363   -6.1172   27.5628 C   0  0  0  0  0  0  0  0  0  0  0  0
    3.0331   -7.4400   27.6362 C   0  0  0  0  0  0  0  0  0  0  0  0
    5.4553   -8.5933   27.9644 C   0  0  0  0  0  0  0  0  0  0  0  0
   -2.3870  -12.8440   19.2512 C   0  0  0  0  0  0  0  0  0  0  0  0
    0.5331   -7.6964   16.2751 C   0  0  0  0  0  0  0  0  0  0  0  0
   -0.6740  -10.8737   18.0482 C   0  0  0  0  0  0  0  0  0  0  0  0
    5.6751  -10.5870   29.7637 O   0  0  0  0  0  0  0  0  0  0  0  0
    1.7612   -5.6483   26.7172 C   0  0  0  0  0  0  0  0  0  0  0  0
    0.2221   -9.8326   17.4055 C   0  0  0  0  0  0  0  0  0  0  0  0
    4.3850   -9.0730   28.6745 C   0  0  0  0  0  0  0  0  0  0  0  0
  1  7  4  0
  1 22  4  0
  2 17  4  0
  2 20  4  0
  2 28  4  0
  3  6  1  0
  3 19  1  0
  4 19  1  0
  4 26  1  0
  5 17  4  0
  5 18  4  0
  6 20  1  0
  6 26  1  0
  7 24  4  0
  8 15  4  0
  8 24  4  0
  9 14  4  0
  9 21  4  0
 10 12  4  0
 10 27  4  0
 11 12  4  0
 11 23  4  0
 13 23  4  0
 13 27  4  0
 14 20  4  0
 15 22  4  0
 16 18  4  0
 16 25  2  0
 16 28  4  0
 21 28  4  0
 24 27  1  0
M  END
$$$$

 Created by Python create_sdf_string function

 28 31  0  0  0  0  0  0  0  0999 V2000
   -1.0054  -13.0622   19.1198 C   0  0  0  0  0  0  0  0  0  0  0  0
    3.1478   -8.5360   28.5161 C   0  0  0  0  0  0  0  0  0  0  0  0
    0.5798   -7.1906   27.9330 C   0  0  0  0  0  0  0  0  0  0  0  0
    0.3978   -5.1561   26.6955 C   0  0  0  0  0  0  0  0  0  0  0  0
    2.3063  -10.0533   30.0125 C   0  0  0  0  0  0  0  0  0  0  0  0
    1.8591   -6.8254   27.4685 N   0  0  0  0  0  0  0  0  0  0  0  0
   -0.2167  -12.1055   18.5568 C   0  0  0  0  0  0  0  0  0  0  0  0
   -2.0661  -10.6994   18.1916 C   0  0  0  0  0  0  0  0  0  0  0  0
    5.2703   -7.5691   27.1123 C   0  0  0  0  0  0  0  0  0  0  0  0
    1.6204   -9.9887   17.2935 C   0  0  0  0  0  0  0  0  0  0  0  0
    1.8931   -7.9265   16.2047 C   0  0  0  0  0  0  0  0  0  0  0  0
    2.4396   -9.0801   16.7132 C   0  0  0  0  0  0  0  0  0  0  0  0
   -0.2575   -8.6234   16.8582 C   0  0  0  0  0  0  0  0  0  0  0  0
    4.0614   -7.0367   27.0106 N   0  0  0  0  0  0  0  0  0  0  0  0
   -2.9133  -11.6279   18.7578 C   0  0  0  0  0  0  0  0  0  0  0  0
    4.5688  -10.1291   29.5758 C   0  0  0  0  0  0  0  0  0  0  0  0
    2.1008   -9.0410   29.1852 N   0  0  0  0  0  0  0  0  0  0  0  0
    3.4829  -10.5697   30.2091 N   0  0  0  0  0  0  0  0  0  0  0  0
   -0.3363   -6.1172   27.5628 C   0  0  0  0  0  0  0  0  0  0  0  0
    3.0331   -7.4400   27.6362 C   0  0  0  0  0  0  0  0  0  0  0  0
    5.4553   -8.5933   27.9644 C   0  0  0  0  0  0  0  0  0  0  0  0
   -2.3870  -12.8440   19.2512 C   0  0  0  0  0  0  0  0  0  0  0  0
    0.5331   -7.6964   16.2751 C   0  0  0  0  0  0  0  0  0  0  0  0
   -0.6740  -10.8737   18.0482 C   0  0  0  0  0  0  0  0  0  0  0  0
    5.6751  -10.5870   29.7637 O   0  0  0  0  0  0  0  0  0  0  0  0
    1.7612   -5.6483   26.7172 C   0  0  0  0  0  0  0  0  0  0  0  0
    0.2221   -9.8326   17.4055 C   0  0  0  0  0  0  0  0  0  0  0  0
    4.3850   -9.0730   28.6745 C   0  0  0  0  0  0  0  0  0  0  0  0
  1  7  4  0
  1 22  4  0
  2 17  4  0
  2 20  4  0
  2 28  4  0
  3  6  1  0
  3 19  1  0
  4 19  1  0
  4 26  1  0
  5 17  4  0
  5 18  4  0
  6 20  1  0
  6 26  1  0
  7 24  4  0
  8 15  4  0
  8 24  4  0
  9 14  4  0
  9 21  4  0
 10 12  4  0
 10 27  4  0
 11 12  4  0
 11 23  4  0
 13 23  4  0
 13 27  4  0
 14 20  4  0
 15 22  4  0
 16 18  4  0
 16 25  2  0
 16 28  4  0
 21 28  4  0
 24 27  1  0
M  END
$$$$

 Created by Python create_sdf_string function

 28 31  0  0  0  0  0  0  0  0999 V2000
   -1.0054  -13.0622   19.1198 C   0  0  0  0  0  0  0  0  0  0  0  0
    3.1478   -8.5360   28.5161 C   0  0  0  0  0  0  0  0  0  0  0  0
    0.5798   -7.1906   27.9330 C   0  0  0  0  0  0  0  0  0  0  0  0
    0.3978   -5.1561   26.6955 C   0  0  0  0  0  0  0  0  0  0  0  0
    2.3063  -10.0533   30.0125 C   0  0  0  0  0  0  0  0  0  0  0  0
    1.8591   -6.8254   27.4685 N   0  0  0  0  0  0  0  0  0  0  0  0
   -0.2167  -12.1055   18.5568 C   0  0  0  0  0  0  0  0  0  0  0  0
   -2.0661  -10.6994   18.1916 C   0  0  0  0  0  0  0  0  0  0  0  0
    5.2703   -7.5691   27.1123 C   0  0  0  0  0  0  0  0  0  0  0  0
    1.6204   -9.9887   17.2935 C   0  0  0  0  0  0  0  0  0  0  0  0
    1.8931   -7.9265   16.2047 C   0  0  0  0  0  0  0  0  0  0  0  0
    2.4396   -9.0801   16.7132 C   0  0  0  0  0  0  0  0  0  0  0  0
   -0.2575   -8.6234   16.8582 C   0  0  0  0  0  0  0  0  0  0  0  0
    4.0614   -7.0367   27.0106 N   0  0  0  0  0  0  0  0  0  0  0  0
   -2.9133  -11.6279   18.7578 C   0  0  0  0  0  0  0  0  0  0  0  0
    4.5688  -10.1291   29.5758 C   0  0  0  0  0  0  0  0  0  0  0  0
    2.1008   -9.0410   29.1852 N   0  0  0  0  0  0  0  0  0  0  0  0
    3.4829  -10.5697   30.2091 N   0  0  0  0  0  0  0  0  0  0  0  0
   -0.3363   -6.1172   27.5628 C   0  0  0  0  0  0  0  0  0  0  0  0
    3.0331   -7.4400   27.6362 C   0  0  0  0  0  0  0  0  0  0  0  0
    5.4553   -8.5933   27.9644 C   0  0  0  0  0  0  0  0  0  0  0  0
   -2.3870  -12.8440   19.2512 C   0  0  0  0  0  0  0  0  0  0  0  0
    0.5331   -7.6964   16.2751 C   0  0  0  0  0  0  0  0  0  0  0  0
   -0.6740  -10.8737   18.0482 C   0  0  0  0  0  0  0  0  0  0  0  0
    5.6751  -10.5870   29.7637 O   0  0  0  0  0  0  0  0  0  0  0  0
    1.7612   -5.6483   26.7172 C   0  0  0  0  0  0  0  0  0  0  0  0
    0.2221   -9.8326   17.4055 C   0  0  0  0  0  0  0  0  0  0  0  0
    4.3850   -9.0730   28.6745 C   0  0  0  0  0  0  0  0  0  0  0  0
  1  7  4  0
  1 22  4  0
  2 17  4  0
  2 20  4  0
  2 28  4  0
  3  6  1  0
  3 19  1  0
  4 19  1  0
  4 26  1  0
  5 17  4  0
  5 18  4  0
  6 20  1  0
  6 26  1  0
  7 24  4  0
  8 15  4  0
  8 24  4  0
  9 14  4  0
  9 21  4  0
 10 12  4  0
 10 27  4  0
 11 12  4  0
 11 23  4  0
 13 23  4  0
 13 27  4  0
 14 20  4  0
 15 22  4  0
 16 18  4  0
 16 25  2  0
 16 28  4  0
 21 28  4  0
 24 27  1  0
M  END
$$$$

 Created by Python create_sdf_string function

 28 31  0  0  0  0  0  0  0  0999 V2000
   -1.0054  -13.0622   19.1198 C   0  0  0  0  0  0  0  0  0  0  0  0
    3.1478   -8.5360   28.5161 C   0  0  0  0  0  0  0  0  0  0  0  0
    0.5798   -7.1906   27.9330 C   0  0  0  0  0  0  0  0  0  0  0  0
    0.3978   -5.1561   26.6955 C   0  0  0  0  0  0  0  0  0  0  0  0
    2.3063  -10.0533   30.0125 C   0  0  0  0  0  0  0  0  0  0  0  0
    1.8591   -6.8254   27.4685 N   0  0  0  0  0  0  0  0  0  0  0  0
   -0.2167  -12.1055   18.5568 C   0  0  0  0  0  0  0  0  0  0  0  0
   -2.0661  -10.6994   18.1916 C   0  0  0  0  0  0  0  0  0  0  0  0
    5.2703   -7.5691   27.1123 C   0  0  0  0  0  0  0  0  0  0  0  0
    1.6204   -9.9887   17.2935 C   0  0  0  0  0  0  0  0  0  0  0  0
    1.8931   -7.9265   16.2047 C   0  0  0  0  0  0  0  0  0  0  0  0
    2.4396   -9.0801   16.7132 C   0  0  0  0  0  0  0  0  0  0  0  0
   -0.2575   -8.6234   16.8582 C   0  0  0  0  0  0  0  0  0  0  0  0
    4.0614   -7.0367   27.0106 N   0  0  0  0  0  0  0  0  0  0  0  0
   -2.9133  -11.6279   18.7578 C   0  0  0  0  0  0  0  0  0  0  0  0
    4.5688  -10.1291   29.5758 C   0  0  0  0  0  0  0  0  0  0  0  0
    2.1008   -9.0410   29.1852 N   0  0  0  0  0  0  0  0  0  0  0  0
    3.4829  -10.5697   30.2091 N   0  0  0  0  0  0  0  0  0  0  0  0
   -0.3363   -6.1172   27.5628 C   0  0  0  0  0  0  0  0  0  0  0  0
    3.0331   -7.4400   27.6362 C   0  0  0  0  0  0  0  0  0  0  0  0
    5.4553   -8.5933   27.9644 C   0  0  0  0  0  0  0  0  0  0  0  0
   -2.3870  -12.8440   19.2512 C   0  0  0  0  0  0  0  0  0  0  0  0
    0.5331   -7.6964   16.2751 C   0  0  0  0  0  0  0  0  0  0  0  0
   -0.6740  -10.8737   18.0482 C   0  0  0  0  0  0  0  0  0  0  0  0
    5.6751  -10.5870   29.7637 O   0  0  0  0  0  0  0  0  0  0  0  0
    1.7612   -5.6483   26.7172 C   0  0  0  0  0  0  0  0  0  0  0  0
    0.2221   -9.8326   17.4055 C   0  0  0  0  0  0  0  0  0  0  0  0
    4.3850   -9.0730   28.6745 C   0  0  0  0  0  0  0  0  0  0  0  0
  1  7  4  0
  1 22  4  0
  2 17  4  0
  2 20  4  0
  2 28  4  0
  3  6  1  0
  3 19  1  0
  4 19  1  0
  4 26  1  0
  5 17  4  0
  5 18  4  0
  6 20  1  0
  6 26  1  0
  7 24  4  0
  8 15  4  0
  8 24  4  0
  9 14  4  0
  9 21  4  0
 10 12  4  0
 10 27  4  0
 11 12  4  0
 11 23  4  0
 13 23  4  0
 13 27  4  0
 14 20  4  0
 15 22  4  0
 16 18  4  0
 16 25  2  0
 16 28  4  0
 21 28  4  0
 24 27  1  0
M  END
$$$$

 Created by Python create_sdf_string function

 28 31  0  0  0  0  0  0  0  0999 V2000
   -1.0054  -13.0622   19.1198 C   0  0  0  0  0  0  0  0  0  0  0  0
    3.1478   -8.5360   28.5161 C   0  0  0  0  0  0  0  0  0  0  0  0
    0.5798   -7.1906   27.9330 C   0  0  0  0  0  0  0  0  0  0  0  0
    0.3978   -5.1561   26.6955 C   0  0  0  0  0  0  0  0  0  0  0  0
    2.3063  -10.0533   30.0125 C   0  0  0  0  0  0  0  0  0  0  0  0
    1.8591   -6.8254   27.4685 N   0  0  0  0  0  0  0  0  0  0  0  0
   -0.2167  -12.1055   18.5568 C   0  0  0  0  0  0  0  0  0  0  0  0
   -2.0661  -10.6994   18.1916 C   0  0  0  0  0  0  0  0  0  0  0  0
    5.2703   -7.5691   27.1123 C   0  0  0  0  0  0  0  0  0  0  0  0
    1.6204   -9.9887   17.2935 C   0  0  0  0  0  0  0  0  0  0  0  0
    1.8931   -7.9265   16.2047 C   0  0  0  0  0  0  0  0  0  0  0  0
    2.4396   -9.0801   16.7132 C   0  0  0  0  0  0  0  0  0  0  0  0
   -0.2575   -8.6234   16.8582 C   0  0  0  0  0  0  0  0  0  0  0  0
    4.0614   -7.0367   27.0106 N   0  0  0  0  0  0  0  0  0  0  0  0
   -2.9133  -11.6279   18.7578 C   0  0  0  0  0  0  0  0  0  0  0  0
    4.5688  -10.1291   29.5758 C   0  0  0  0  0  0  0  0  0  0  0  0
    2.1008   -9.0410   29.1852 N   0  0  0  0  0  0  0  0  0  0  0  0
    3.4829  -10.5697   30.2091 N   0  0  0  0  0  0  0  0  0  0  0  0
   -0.3363   -6.1172   27.5628 C   0  0  0  0  0  0  0  0  0  0  0  0
    3.0331   -7.4400   27.6362 C   0  0  0  0  0  0  0  0  0  0  0  0
    5.4553   -8.5933   27.9644 C   0  0  0  0  0  0  0  0  0  0  0  0
   -2.3870  -12.8440   19.2512 C   0  0  0  0  0  0  0  0  0  0  0  0
    0.5331   -7.6964   16.2751 C   0  0  0  0  0  0  0  0  0  0  0  0
   -0.6740  -10.8737   18.0482 C   0  0  0  0  0  0  0  0  0  0  0  0
    5.6751  -10.5870   29.7637 O   0  0  0  0  0  0  0  0  0  0  0  0
    1.7612   -5.6483   26.7172 C   0  0  0  0  0  0  0  0  0  0  0  0
    0.2221   -9.8326   17.4055 C   0  0  0  0  0  0  0  0  0  0  0  0
    4.3850   -9.0730   28.6745 C   0  0  0  0  0  0  0  0  0  0  0  0
  1  7  4  0
  1 22  4  0
  2 17  4  0
  2 20  4  0
  2 28  4  0
  3  6  1  0
  3 19  1  0
  4 19  1  0
  4 26  1  0
  5 17  4  0
  5 18  4  0
  6 20  1  0
  6 26  1  0
  7 24  4  0
  8 15  4  0
  8 24  4  0
  9 14  4  0
  9 21  4  0
 10 12  4  0
 10 27  4  0
 11 12  4  0
 11 23  4  0
 13 23  4  0
 13 27  4  0
 14 20  4  0
 15 22  4  0
 16 18  4  0
 16 25  2  0
 16 28  4  0
 21 28  4  0
 24 27  1  0
M  END
$$$$

 Created by Python create_sdf_string function

 28 31  0  0  0  0  0  0  0  0999 V2000
   -1.0054  -13.0622   19.1198 C   0  0  0  0  0  0  0  0  0  0  0  0
    3.1478   -8.5360   28.5161 C   0  0  0  0  0  0  0  0  0  0  0  0
    0.5798   -7.1906   27.9330 C   0  0  0  0  0  0  0  0  0  0  0  0
    0.3978   -5.1561   26.6955 C   0  0  0  0  0  0  0  0  0  0  0  0
    2.3063  -10.0533   30.0125 C   0  0  0  0  0  0  0  0  0  0  0  0
    1.8591   -6.8254   27.4685 N   0  0  0  0  0  0  0  0  0  0  0  0
   -0.2167  -12.1055   18.5568 C   0  0  0  0  0  0  0  0  0  0  0  0
   -2.0661  -10.6994   18.1916 C   0  0  0  0  0  0  0  0  0  0  0  0
    5.2703   -7.5691   27.1123 C   0  0  0  0  0  0  0  0  0  0  0  0
    1.6204   -9.9887   17.2935 C   0  0  0  0  0  0  0  0  0  0  0  0
    1.8931   -7.9265   16.2047 C   0  0  0  0  0  0  0  0  0  0  0  0
    2.4396   -9.0801   16.7132 C   0  0  0  0  0  0  0  0  0  0  0  0
   -0.2575   -8.6234   16.8582 C   0  0  0  0  0  0  0  0  0  0  0  0
    4.0614   -7.0367   27.0106 N   0  0  0  0  0  0  0  0  0  0  0  0
   -2.9133  -11.6279   18.7578 C   0  0  0  0  0  0  0  0  0  0  0  0
    4.5688  -10.1291   29.5758 C   0  0  0  0  0  0  0  0  0  0  0  0
    2.1008   -9.0410   29.1852 N   0  0  0  0  0  0  0  0  0  0  0  0
    3.4829  -10.5697   30.2091 N   0  0  0  0  0  0  0  0  0  0  0  0
   -0.3363   -6.1172   27.5628 C   0  0  0  0  0  0  0  0  0  0  0  0
    3.0331   -7.4400   27.6362 C   0  0  0  0  0  0  0  0  0  0  0  0
    5.4553   -8.5933   27.9644 C   0  0  0  0  0  0  0  0  0  0  0  0
   -2.3870  -12.8440   19.2512 C   0  0  0  0  0  0  0  0  0  0  0  0
    0.5331   -7.6964   16.2751 C   0  0  0  0  0  0  0  0  0  0  0  0
   -0.6740  -10.8737   18.0482 C   0  0  0  0  0  0  0  0  0  0  0  0
    5.6751  -10.5870   29.7637 O   0  0  0  0  0  0  0  0  0  0  0  0
    1.7612   -5.6483   26.7172 C   0  0  0  0  0  0  0  0  0  0  0  0
    0.2221   -9.8326   17.4055 C   0  0  0  0  0  0  0  0  0  0  0  0
    4.3850   -9.0730   28.6745 C   0  0  0  0  0  0  0  0  0  0  0  0
  1  7  4  0
  1 22  4  0
  2 17  4  0
  2 20  4  0
  2 28  4  0
  3  6  1  0
  3 19  1  0
  4 19  1  0
  4 26  1  0
  5 17  4  0
  5 18  4  0
  6 20  1  0
  6 26  1  0
  7 24  4  0
  8 15  4  0
  8 24  4  0
  9 14  4  0
  9 21  4  0
 10 12  4  0
 10 27  4  0
 11 12  4  0
 11 23  4  0
 13 23  4  0
 13 27  4  0
 14 20  4  0
 15 22  4  0
 16 18  4  0
 16 25  2  0
 16 28  4  0
 21 28  4  0
 24 27  1  0
M  END
$$$$

 Created by Python create_sdf_string function

 28 31  0  0  0  0  0  0  0  0999 V2000
   -1.0054  -13.0622   19.1198 C   0  0  0  0  0  0  0  0  0  0  0  0
    3.1478   -8.5360   28.5161 C   0  0  0  0  0  0  0  0  0  0  0  0
    0.5798   -7.1906   27.9330 C   0  0  0  0  0  0  0  0  0  0  0  0
    0.3978   -5.1561   26.6955 C   0  0  0  0  0  0  0  0  0  0  0  0
    2.3063  -10.0533   30.0125 C   0  0  0  0  0  0  0  0  0  0  0  0
    1.8591   -6.8254   27.4685 N   0  0  0  0  0  0  0  0  0  0  0  0
   -0.2167  -12.1055   18.5568 C   0  0  0  0  0  0  0  0  0  0  0  0
   -2.0661  -10.6994   18.1916 C   0  0  0  0  0  0  0  0  0  0  0  0
    5.2703   -7.5691   27.1123 C   0  0  0  0  0  0  0  0  0  0  0  0
    1.6204   -9.9887   17.2935 C   0  0  0  0  0  0  0  0  0  0  0  0
    1.8931   -7.9265   16.2047 C   0  0  0  0  0  0  0  0  0  0  0  0
    2.4396   -9.0801   16.7132 C   0  0  0  0  0  0  0  0  0  0  0  0
   -0.2575   -8.6234   16.8582 C   0  0  0  0  0  0  0  0  0  0  0  0
    4.0614   -7.0367   27.0106 N   0  0  0  0  0  0  0  0  0  0  0  0
   -2.9133  -11.6279   18.7578 C   0  0  0  0  0  0  0  0  0  0  0  0
    4.5688  -10.1291   29.5758 C   0  0  0  0  0  0  0  0  0  0  0  0
    2.1008   -9.0410   29.1852 N   0  0  0  0  0  0  0  0  0  0  0  0
    3.4829  -10.5697   30.2091 N   0  0  0  0  0  0  0  0  0  0  0  0
   -0.3363   -6.1172   27.5628 C   0  0  0  0  0  0  0  0  0  0  0  0
    3.0331   -7.4400   27.6362 C   0  0  0  0  0  0  0  0  0  0  0  0
    5.4553   -8.5933   27.9644 C   0  0  0  0  0  0  0  0  0  0  0  0
   -2.3870  -12.8440   19.2512 C   0  0  0  0  0  0  0  0  0  0  0  0
    0.5331   -7.6964   16.2751 C   0  0  0  0  0  0  0  0  0  0  0  0
   -0.6740  -10.8737   18.0482 C   0  0  0  0  0  0  0  0  0  0  0  0
    5.6751  -10.5870   29.7637 O   0  0  0  0  0  0  0  0  0  0  0  0
    1.7612   -5.6483   26.7172 C   0  0  0  0  0  0  0  0  0  0  0  0
    0.2221   -9.8326   17.4055 C   0  0  0  0  0  0  0  0  0  0  0  0
    4.3850   -9.0730   28.6745 C   0  0  0  0  0  0  0  0  0  0  0  0
  1  7  4  0
  1 22  4  0
  2 17  4  0
  2 20  4  0
  2 28  4  0
  3  6  1  0
  3 19  1  0
  4 19  1  0
  4 26  1  0
  5 17  4  0
  5 18  4  0
  6 20  1  0
  6 26  1  0
  7 24  4  0
  8 15  4  0
  8 24  4  0
  9 14  4  0
  9 21  4  0
 10 12  4  0
 10 27  4  0
 11 12  4  0
 11 23  4  0
 13 23  4  0
 13 27  4  0
 14 20  4  0
 15 22  4  0
 16 18  4  0
 16 25  2  0
 16 28  4  0
 21 28  4  0
 24 27  1  0
M  END
$$$$

 Created by Python create_sdf_string function

 28 31  0  0  0  0  0  0  0  0999 V2000
   -1.0054  -13.0622   19.1198 C   0  0  0  0  0  0  0  0  0  0  0  0
    3.1478   -8.5360   28.5161 C   0  0  0  0  0  0  0  0  0  0  0  0
    0.5798   -7.1906   27.9330 C   0  0  0  0  0  0  0  0  0  0  0  0
    0.3978   -5.1561   26.6955 C   0  0  0  0  0  0  0  0  0  0  0  0
    2.3063  -10.0533   30.0125 C   0  0  0  0  0  0  0  0  0  0  0  0
    1.8591   -6.8254   27.4685 N   0  0  0  0  0  0  0  0  0  0  0  0
   -0.2167  -12.1055   18.5568 C   0  0  0  0  0  0  0  0  0  0  0  0
   -2.0661  -10.6994   18.1916 C   0  0  0  0  0  0  0  0  0  0  0  0
    5.2703   -7.5691   27.1123 C   0  0  0  0  0  0  0  0  0  0  0  0
    1.6204   -9.9887   17.2935 C   0  0  0  0  0  0  0  0  0  0  0  0
    1.8931   -7.9265   16.2047 C   0  0  0  0  0  0  0  0  0  0  0  0
    2.4396   -9.0801   16.7132 C   0  0  0  0  0  0  0  0  0  0  0  0
   -0.2575   -8.6234   16.8582 C   0  0  0  0  0  0  0  0  0  0  0  0
    4.0614   -7.0367   27.0106 N   0  0  0  0  0  0  0  0  0  0  0  0
   -2.9133  -11.6279   18.7578 C   0  0  0  0  0  0  0  0  0  0  0  0
    4.5688  -10.1291   29.5758 C   0  0  0  0  0  0  0  0  0  0  0  0
    2.1008   -9.0410   29.1852 N   0  0  0  0  0  0  0  0  0  0  0  0
    3.4829  -10.5697   30.2091 N   0  0  0  0  0  0  0  0  0  0  0  0
   -0.3363   -6.1172   27.5628 C   0  0  0  0  0  0  0  0  0  0  0  0
    3.0331   -7.4400   27.6362 C   0  0  0  0  0  0  0  0  0  0  0  0
    5.4553   -8.5933   27.9644 C   0  0  0  0  0  0  0  0  0  0  0  0
   -2.3870  -12.8440   19.2512 C   0  0  0  0  0  0  0  0  0  0  0  0
    0.5331   -7.6964   16.2751 C   0  0  0  0  0  0  0  0  0  0  0  0
   -0.6740  -10.8737   18.0482 C   0  0  0  0  0  0  0  0  0  0  0  0
    5.6751  -10.5870   29.7637 O   0  0  0  0  0  0  0  0  0  0  0  0
    1.7612   -5.6483   26.7172 C   0  0  0  0  0  0  0  0  0  0  0  0
    0.2221   -9.8326   17.4055 C   0  0  0  0  0  0  0  0  0  0  0  0
    4.3850   -9.0730   28.6745 C   0  0  0  0  0  0  0  0  0  0  0  0
  1  7  4  0
  1 22  4  0
  2 17  4  0
  2 20  4  0
  2 28  4  0
  3  6  1  0
  3 19  1  0
  4 19  1  0
  4 26  1  0
  5 17  4  0
  5 18  4  0
  6 20  1  0
  6 26  1  0
  7 24  4  0
  8 15  4  0
  8 24  4  0
  9 14  4  0
  9 21  4  0
 10 12  4  0
 10 27  4  0
 11 12  4  0
 11 23  4  0
 13 23  4  0
 13 27  4  0
 14 20  4  0
 15 22  4  0
 16 18  4  0
 16 25  2  0
 16 28  4  0
 21 28  4  0
 24 27  1  0
M  END
$$$$

 Created by Python create_sdf_string function

 28 31  0  0  0  0  0  0  0  0999 V2000
   -1.0054  -13.0622   19.1198 C   0  0  0  0  0  0  0  0  0  0  0  0
    3.1478   -8.5360   28.5161 C   0  0  0  0  0  0  0  0  0  0  0  0
    0.5798   -7.1906   27.9330 C   0  0  0  0  0  0  0  0  0  0  0  0
    0.3978   -5.1561   26.6955 C   0  0  0  0  0  0  0  0  0  0  0  0
    2.3063  -10.0533   30.0125 C   0  0  0  0  0  0  0  0  0  0  0  0
    1.8591   -6.8254   27.4685 N   0  0  0  0  0  0  0  0  0  0  0  0
   -0.2167  -12.1055   18.5568 C   0  0  0  0  0  0  0  0  0  0  0  0
   -2.0661  -10.6994   18.1916 C   0  0  0  0  0  0  0  0  0  0  0  0
    5.2703   -7.5691   27.1123 C   0  0  0  0  0  0  0  0  0  0  0  0
    1.6204   -9.9887   17.2935 C   0  0  0  0  0  0  0  0  0  0  0  0
    1.8931   -7.9265   16.2047 C   0  0  0  0  0  0  0  0  0  0  0  0
    2.4396   -9.0801   16.7132 C   0  0  0  0  0  0  0  0  0  0  0  0
   -0.2575   -8.6234   16.8582 C   0  0  0  0  0  0  0  0  0  0  0  0
    4.0614   -7.0367   27.0106 N   0  0  0  0  0  0  0  0  0  0  0  0
   -2.9133  -11.6279   18.7578 C   0  0  0  0  0  0  0  0  0  0  0  0
    4.5688  -10.1291   29.5758 C   0  0  0  0  0  0  0  0  0  0  0  0
    2.1008   -9.0410   29.1852 N   0  0  0  0  0  0  0  0  0  0  0  0
    3.4829  -10.5697   30.2091 N   0  0  0  0  0  0  0  0  0  0  0  0
   -0.3363   -6.1172   27.5628 C   0  0  0  0  0  0  0  0  0  0  0  0
    3.0331   -7.4400   27.6362 C   0  0  0  0  0  0  0  0  0  0  0  0
    5.4553   -8.5933   27.9644 C   0  0  0  0  0  0  0  0  0  0  0  0
   -2.3870  -12.8440   19.2512 C   0  0  0  0  0  0  0  0  0  0  0  0
    0.5331   -7.6964   16.2751 C   0  0  0  0  0  0  0  0  0  0  0  0
   -0.6740  -10.8737   18.0482 C   0  0  0  0  0  0  0  0  0  0  0  0
    5.6751  -10.5870   29.7637 O   0  0  0  0  0  0  0  0  0  0  0  0
    1.7612   -5.6483   26.7172 C   0  0  0  0  0  0  0  0  0  0  0  0
    0.2221   -9.8326   17.4055 C   0  0  0  0  0  0  0  0  0  0  0  0
    4.3850   -9.0730   28.6745 C   0  0  0  0  0  0  0  0  0  0  0  0
  1  7  4  0
  1 22  4  0
  2 17  4  0
  2 20  4  0
  2 28  4  0
  3  6  1  0
  3 19  1  0
  4 19  1  0
  4 26  1  0
  5 17  4  0
  5 18  4  0
  6 20  1  0
  6 26  1  0
  7 24  4  0
  8 15  4  0
  8 24  4  0
  9 14  4  0
  9 21  4  0
 10 12  4  0
 10 27  4  0
 11 12  4  0
 11 23  4  0
 13 23  4  0
 13 27  4  0
 14 20  4  0
 15 22  4  0
 16 18  4  0
 16 25  2  0
 16 28  4  0
 21 28  4  0
 24 27  1  0
M  END
$$$$

 Created by Python create_sdf_string function

 28 31  0  0  0  0  0  0  0  0999 V2000
   -1.0054  -13.0622   19.1198 C   0  0  0  0  0  0  0  0  0  0  0  0
    3.1478   -8.5360   28.5161 C   0  0  0  0  0  0  0  0  0  0  0  0
    0.5798   -7.1906   27.9330 C   0  0  0  0  0  0  0  0  0  0  0  0
    0.3978   -5.1561   26.6955 C   0  0  0  0  0  0  0  0  0  0  0  0
    2.3063  -10.0533   30.0125 C   0  0  0  0  0  0  0  0  0  0  0  0
    1.8591   -6.8254   27.4685 N   0  0  0  0  0  0  0  0  0  0  0  0
   -0.2167  -12.1055   18.5568 C   0  0  0  0  0  0  0  0  0  0  0  0
   -2.0661  -10.6994   18.1916 C   0  0  0  0  0  0  0  0  0  0  0  0
    5.2703   -7.5691   27.1123 C   0  0  0  0  0  0  0  0  0  0  0  0
    1.6204   -9.9887   17.2935 C   0  0  0  0  0  0  0  0  0  0  0  0
    1.8931   -7.9265   16.2047 C   0  0  0  0  0  0  0  0  0  0  0  0
    2.4396   -9.0801   16.7132 C   0  0  0  0  0  0  0  0  0  0  0  0
   -0.2575   -8.6234   16.8582 C   0  0  0  0  0  0  0  0  0  0  0  0
    4.0614   -7.0367   27.0106 N   0  0  0  0  0  0  0  0  0  0  0  0
   -2.9133  -11.6279   18.7578 C   0  0  0  0  0  0  0  0  0  0  0  0
    4.5688  -10.1291   29.5758 C   0  0  0  0  0  0  0  0  0  0  0  0
    2.1008   -9.0410   29.1852 N   0  0  0  0  0  0  0  0  0  0  0  0
    3.4829  -10.5697   30.2091 N   0  0  0  0  0  0  0  0  0  0  0  0
   -0.3363   -6.1172   27.5628 C   0  0  0  0  0  0  0  0  0  0  0  0
    3.0331   -7.4400   27.6362 C   0  0  0  0  0  0  0  0  0  0  0  0
    5.4553   -8.5933   27.9644 C   0  0  0  0  0  0  0  0  0  0  0  0
   -2.3870  -12.8440   19.2512 C   0  0  0  0  0  0  0  0  0  0  0  0
    0.5331   -7.6964   16.2751 C   0  0  0  0  0  0  0  0  0  0  0  0
   -0.6740  -10.8737   18.0482 C   0  0  0  0  0  0  0  0  0  0  0  0
    5.6751  -10.5870   29.7637 O   0  0  0  0  0  0  0  0  0  0  0  0
    1.7612   -5.6483   26.7172 C   0  0  0  0  0  0  0  0  0  0  0  0
    0.2221   -9.8326   17.4055 C   0  0  0  0  0  0  0  0  0  0  0  0
    4.3850   -9.0730   28.6745 C   0  0  0  0  0  0  0  0  0  0  0  0
  1  7  4  0
  1 22  4  0
  2 17  4  0
  2 20  4  0
  2 28  4  0
  3  6  1  0
  3 19  1  0
  4 19  1  0
  4 26  1  0
  5 17  4  0
  5 18  4  0
  6 20  1  0
  6 26  1  0
  7 24  4  0
  8 15  4  0
  8 24  4  0
  9 14  4  0
  9 21  4  0
 10 12  4  0
 10 27  4  0
 11 12  4  0
 11 23  4  0
 13 23  4  0
 13 27  4  0
 14 20  4  0
 15 22  4  0
 16 18  4  0
 16 25  2  0
 16 28  4  0
 21 28  4  0
 24 27  1  0
M  END
$$$$

 Created by Python create_sdf_string function

 28 31  0  0  0  0  0  0  0  0999 V2000
   -1.0054  -13.0622   19.1198 C   0  0  0  0  0  0  0  0  0  0  0  0
    3.1478   -8.5360   28.5161 C   0  0  0  0  0  0  0  0  0  0  0  0
    0.5798   -7.1906   27.9330 C   0  0  0  0  0  0  0  0  0  0  0  0
    0.3978   -5.1561   26.6955 C   0  0  0  0  0  0  0  0  0  0  0  0
    2.3063  -10.0533   30.0125 C   0  0  0  0  0  0  0  0  0  0  0  0
    1.8591   -6.8254   27.4685 N   0  0  0  0  0  0  0  0  0  0  0  0
   -0.2167  -12.1055   18.5568 C   0  0  0  0  0  0  0  0  0  0  0  0
   -2.0661  -10.6994   18.1916 C   0  0  0  0  0  0  0  0  0  0  0  0
    5.2703   -7.5691   27.1123 C   0  0  0  0  0  0  0  0  0  0  0  0
    1.6204   -9.9887   17.2935 C   0  0  0  0  0  0  0  0  0  0  0  0
    1.8931   -7.9265   16.2047 C   0  0  0  0  0  0  0  0  0  0  0  0
    2.4396   -9.0801   16.7132 C   0  0  0  0  0  0  0  0  0  0  0  0
   -0.2575   -8.6234   16.8582 C   0  0  0  0  0  0  0  0  0  0  0  0
    4.0614   -7.0367   27.0106 N   0  0  0  0  0  0  0  0  0  0  0  0
   -2.9133  -11.6279   18.7578 C   0  0  0  0  0  0  0  0  0  0  0  0
    4.5688  -10.1291   29.5758 C   0  0  0  0  0  0  0  0  0  0  0  0
    2.1008   -9.0410   29.1852 N   0  0  0  0  0  0  0  0  0  0  0  0
    3.4829  -10.5697   30.2091 N   0  0  0  0  0  0  0  0  0  0  0  0
   -0.3363   -6.1172   27.5628 C   0  0  0  0  0  0  0  0  0  0  0  0
    3.0331   -7.4400   27.6362 C   0  0  0  0  0  0  0  0  0  0  0  0
    5.4553   -8.5933   27.9644 C   0  0  0  0  0  0  0  0  0  0  0  0
   -2.3870  -12.8440   19.2512 C   0  0  0  0  0  0  0  0  0  0  0  0
    0.5331   -7.6964   16.2751 C   0  0  0  0  0  0  0  0  0  0  0  0
   -0.6740  -10.8737   18.0482 C   0  0  0  0  0  0  0  0  0  0  0  0
    5.6751  -10.5870   29.7637 O   0  0  0  0  0  0  0  0  0  0  0  0
    1.7612   -5.6483   26.7172 C   0  0  0  0  0  0  0  0  0  0  0  0
    0.2221   -9.8326   17.4055 C   0  0  0  0  0  0  0  0  0  0  0  0
    4.3850   -9.0730   28.6745 C   0  0  0  0  0  0  0  0  0  0  0  0
  1  7  4  0
  1 22  4  0
  2 17  4  0
  2 20  4  0
  2 28  4  0
  3  6  1  0
  3 19  1  0
  4 19  1  0
  4 26  1  0
  5 17  4  0
  5 18  4  0
  6 20  1  0
  6 26  1  0
  7 24  4  0
  8 15  4  0
  8 24  4  0
  9 14  4  0
  9 21  4  0
 10 12  4  0
 10 27  4  0
 11 12  4  0
 11 23  4  0
 13 23  4  0
 13 27  4  0
 14 20  4  0
 15 22  4  0
 16 18  4  0
 16 25  2  0
 16 28  4  0
 21 28  4  0
 24 27  1  0
M  END
$$$$

 Created by Python create_sdf_string function

 28 31  0  0  0  0  0  0  0  0999 V2000
   -1.0054  -13.0622   19.1198 C   0  0  0  0  0  0  0  0  0  0  0  0
    3.1478   -8.5360   28.5161 C   0  0  0  0  0  0  0  0  0  0  0  0
    0.5798   -7.1906   27.9330 C   0  0  0  0  0  0  0  0  0  0  0  0
    0.3978   -5.1561   26.6955 C   0  0  0  0  0  0  0  0  0  0  0  0
    2.3063  -10.0533   30.0125 C   0  0  0  0  0  0  0  0  0  0  0  0
    1.8591   -6.8254   27.4685 N   0  0  0  0  0  0  0  0  0  0  0  0
   -0.2167  -12.1055   18.5568 C   0  0  0  0  0  0  0  0  0  0  0  0
   -2.0661  -10.6994   18.1916 C   0  0  0  0  0  0  0  0  0  0  0  0
    5.2703   -7.5691   27.1123 C   0  0  0  0  0  0  0  0  0  0  0  0
    1.6204   -9.9887   17.2935 C   0  0  0  0  0  0  0  0  0  0  0  0
    1.8931   -7.9265   16.2047 C   0  0  0  0  0  0  0  0  0  0  0  0
    2.4396   -9.0801   16.7132 C   0  0  0  0  0  0  0  0  0  0  0  0
   -0.2575   -8.6234   16.8582 C   0  0  0  0  0  0  0  0  0  0  0  0
    4.0614   -7.0367   27.0106 N   0  0  0  0  0  0  0  0  0  0  0  0
   -2.9133  -11.6279   18.7578 C   0  0  0  0  0  0  0  0  0  0  0  0
    4.5688  -10.1291   29.5758 C   0  0  0  0  0  0  0  0  0  0  0  0
    2.1008   -9.0410   29.1852 N   0  0  0  0  0  0  0  0  0  0  0  0
    3.4829  -10.5697   30.2091 N   0  0  0  0  0  0  0  0  0  0  0  0
   -0.3363   -6.1172   27.5628 C   0  0  0  0  0  0  0  0  0  0  0  0
    3.0331   -7.4400   27.6362 C   0  0  0  0  0  0  0  0  0  0  0  0
    5.4553   -8.5933   27.9644 C   0  0  0  0  0  0  0  0  0  0  0  0
   -2.3870  -12.8440   19.2512 C   0  0  0  0  0  0  0  0  0  0  0  0
    0.5331   -7.6964   16.2751 C   0  0  0  0  0  0  0  0  0  0  0  0
   -0.6740  -10.8737   18.0482 C   0  0  0  0  0  0  0  0  0  0  0  0
    5.6751  -10.5870   29.7637 O   0  0  0  0  0  0  0  0  0  0  0  0
    1.7612   -5.6483   26.7172 C   0  0  0  0  0  0  0  0  0  0  0  0
    0.2221   -9.8326   17.4055 C   0  0  0  0  0  0  0  0  0  0  0  0
    4.3850   -9.0730   28.6745 C   0  0  0  0  0  0  0  0  0  0  0  0
  1  7  4  0
  1 22  4  0
  2 17  4  0
  2 20  4  0
  2 28  4  0
  3  6  1  0
  3 19  1  0
  4 19  1  0
  4 26  1  0
  5 17  4  0
  5 18  4  0
  6 20  1  0
  6 26  1  0
  7 24  4  0
  8 15  4  0
  8 24  4  0
  9 14  4  0
  9 21  4  0
 10 12  4  0
 10 27  4  0
 11 12  4  0
 11 23  4  0
 13 23  4  0
 13 27  4  0
 14 20  4  0
 15 22  4  0
 16 18  4  0
 16 25  2  0
 16 28  4  0
 21 28  4  0
 24 27  1  0
M  END
$$$$

 Created by Python create_sdf_string function

 28 31  0  0  0  0  0  0  0  0999 V2000
   -1.0054  -13.0622   19.1198 C   0  0  0  0  0  0  0  0  0  0  0  0
    3.1478   -8.5360   28.5161 C   0  0  0  0  0  0  0  0  0  0  0  0
    0.5798   -7.1906   27.9330 C   0  0  0  0  0  0  0  0  0  0  0  0
    0.3978   -5.1561   26.6955 C   0  0  0  0  0  0  0  0  0  0  0  0
    2.3063  -10.0533   30.0125 C   0  0  0  0  0  0  0  0  0  0  0  0
    1.8591   -6.8254   27.4685 N   0  0  0  0  0  0  0  0  0  0  0  0
   -0.2167  -12.1055   18.5568 C   0  0  0  0  0  0  0  0  0  0  0  0
   -2.0661  -10.6994   18.1916 C   0  0  0  0  0  0  0  0  0  0  0  0
    5.2703   -7.5691   27.1123 C   0  0  0  0  0  0  0  0  0  0  0  0
    1.6204   -9.9887   17.2935 C   0  0  0  0  0  0  0  0  0  0  0  0
    1.8931   -7.9265   16.2047 C   0  0  0  0  0  0  0  0  0  0  0  0
    2.4396   -9.0801   16.7132 C   0  0  0  0  0  0  0  0  0  0  0  0
   -0.2575   -8.6234   16.8582 C   0  0  0  0  0  0  0  0  0  0  0  0
    4.0614   -7.0367   27.0106 N   0  0  0  0  0  0  0  0  0  0  0  0
   -2.9133  -11.6279   18.7578 C   0  0  0  0  0  0  0  0  0  0  0  0
    4.5688  -10.1291   29.5758 C   0  0  0  0  0  0  0  0  0  0  0  0
    2.1008   -9.0410   29.1852 N   0  0  0  0  0  0  0  0  0  0  0  0
    3.4829  -10.5697   30.2091 N   0  0  0  0  0  0  0  0  0  0  0  0
   -0.3363   -6.1172   27.5628 C   0  0  0  0  0  0  0  0  0  0  0  0
    3.0331   -7.4400   27.6362 C   0  0  0  0  0  0  0  0  0  0  0  0
    5.4553   -8.5933   27.9644 C   0  0  0  0  0  0  0  0  0  0  0  0
   -2.3870  -12.8440   19.2512 C   0  0  0  0  0  0  0  0  0  0  0  0
    0.5331   -7.6964   16.2751 C   0  0  0  0  0  0  0  0  0  0  0  0
   -0.6740  -10.8737   18.0482 C   0  0  0  0  0  0  0  0  0  0  0  0
    5.6751  -10.5870   29.7637 O   0  0  0  0  0  0  0  0  0  0  0  0
    1.7612   -5.6483   26.7172 C   0  0  0  0  0  0  0  0  0  0  0  0
    0.2221   -9.8326   17.4055 C   0  0  0  0  0  0  0  0  0  0  0  0
    4.3850   -9.0730   28.6745 C   0  0  0  0  0  0  0  0  0  0  0  0
  1  7  4  0
  1 22  4  0
  2 17  4  0
  2 20  4  0
  2 28  4  0
  3  6  1  0
  3 19  1  0
  4 19  1  0
  4 26  1  0
  5 17  4  0
  5 18  4  0
  6 20  1  0
  6 26  1  0
  7 24  4  0
  8 15  4  0
  8 24  4  0
  9 14  4  0
  9 21  4  0
 10 12  4  0
 10 27  4  0
 11 12  4  0
 11 23  4  0
 13 23  4  0
 13 27  4  0
 14 20  4  0
 15 22  4  0
 16 18  4  0
 16 25  2  0
 16 28  4  0
 21 28  4  0
 24 27  1  0
M  END
$$$$

 Created by Python create_sdf_string function

 28 31  0  0  0  0  0  0  0  0999 V2000
   -1.0054  -13.0622   19.1198 C   0  0  0  0  0  0  0  0  0  0  0  0
    3.1478   -8.5360   28.5161 C   0  0  0  0  0  0  0  0  0  0  0  0
    0.5798   -7.1906   27.9330 C   0  0  0  0  0  0  0  0  0  0  0  0
    0.3978   -5.1561   26.6955 C   0  0  0  0  0  0  0  0  0  0  0  0
    2.3063  -10.0533   30.0125 C   0  0  0  0  0  0  0  0  0  0  0  0
    1.8591   -6.8254   27.4685 N   0  0  0  0  0  0  0  0  0  0  0  0
   -0.2167  -12.1055   18.5568 C   0  0  0  0  0  0  0  0  0  0  0  0
   -2.0661  -10.6994   18.1916 C   0  0  0  0  0  0  0  0  0  0  0  0
    5.2703   -7.5691   27.1123 C   0  0  0  0  0  0  0  0  0  0  0  0
    1.6204   -9.9887   17.2935 C   0  0  0  0  0  0  0  0  0  0  0  0
    1.8931   -7.9265   16.2047 C   0  0  0  0  0  0  0  0  0  0  0  0
    2.4396   -9.0801   16.7132 C   0  0  0  0  0  0  0  0  0  0  0  0
   -0.2575   -8.6234   16.8582 C   0  0  0  0  0  0  0  0  0  0  0  0
    4.0614   -7.0367   27.0106 N   0  0  0  0  0  0  0  0  0  0  0  0
   -2.9133  -11.6279   18.7578 C   0  0  0  0  0  0  0  0  0  0  0  0
    4.5688  -10.1291   29.5758 C   0  0  0  0  0  0  0  0  0  0  0  0
    2.1008   -9.0410   29.1852 N   0  0  0  0  0  0  0  0  0  0  0  0
    3.4829  -10.5697   30.2091 N   0  0  0  0  0  0  0  0  0  0  0  0
   -0.3363   -6.1172   27.5628 C   0  0  0  0  0  0  0  0  0  0  0  0
    3.0331   -7.4400   27.6362 C   0  0  0  0  0  0  0  0  0  0  0  0
    5.4553   -8.5933   27.9644 C   0  0  0  0  0  0  0  0  0  0  0  0
   -2.3870  -12.8440   19.2512 C   0  0  0  0  0  0  0  0  0  0  0  0
    0.5331   -7.6964   16.2751 C   0  0  0  0  0  0  0  0  0  0  0  0
   -0.6740  -10.8737   18.0482 C   0  0  0  0  0  0  0  0  0  0  0  0
    5.6751  -10.5870   29.7637 O   0  0  0  0  0  0  0  0  0  0  0  0
    1.7612   -5.6483   26.7172 C   0  0  0  0  0  0  0  0  0  0  0  0
    0.2221   -9.8326   17.4055 C   0  0  0  0  0  0  0  0  0  0  0  0
    4.3850   -9.0730   28.6745 C   0  0  0  0  0  0  0  0  0  0  0  0
  1  7  4  0
  1 22  4  0
  2 17  4  0
  2 20  4  0
  2 28  4  0
  3  6  1  0
  3 19  1  0
  4 19  1  0
  4 26  1  0
  5 17  4  0
  5 18  4  0
  6 20  1  0
  6 26  1  0
  7 24  4  0
  8 15  4  0
  8 24  4  0
  9 14  4  0
  9 21  4  0
 10 12  4  0
 10 27  4  0
 11 12  4  0
 11 23  4  0
 13 23  4  0
 13 27  4  0
 14 20  4  0
 15 22  4  0
 16 18  4  0
 16 25  2  0
 16 28  4  0
 21 28  4  0
 24 27  1  0
M  END
$$$$

 Created by Python create_sdf_string function

 28 31  0  0  0  0  0  0  0  0999 V2000
   -1.0054  -13.0622   19.1198 C   0  0  0  0  0  0  0  0  0  0  0  0
    3.1478   -8.5360   28.5161 C   0  0  0  0  0  0  0  0  0  0  0  0
    0.5798   -7.1906   27.9330 C   0  0  0  0  0  0  0  0  0  0  0  0
    0.3978   -5.1561   26.6955 C   0  0  0  0  0  0  0  0  0  0  0  0
    2.3063  -10.0533   30.0125 C   0  0  0  0  0  0  0  0  0  0  0  0
    1.8591   -6.8254   27.4685 N   0  0  0  0  0  0  0  0  0  0  0  0
   -0.2167  -12.1055   18.5568 C   0  0  0  0  0  0  0  0  0  0  0  0
   -2.0661  -10.6994   18.1916 C   0  0  0  0  0  0  0  0  0  0  0  0
    5.2703   -7.5691   27.1123 C   0  0  0  0  0  0  0  0  0  0  0  0
    1.6204   -9.9887   17.2935 C   0  0  0  0  0  0  0  0  0  0  0  0
    1.8931   -7.9265   16.2047 C   0  0  0  0  0  0  0  0  0  0  0  0
    2.4396   -9.0801   16.7132 C   0  0  0  0  0  0  0  0  0  0  0  0
   -0.2575   -8.6234   16.8582 C   0  0  0  0  0  0  0  0  0  0  0  0
    4.0614   -7.0367   27.0106 N   0  0  0  0  0  0  0  0  0  0  0  0
   -2.9133  -11.6279   18.7578 C   0  0  0  0  0  0  0  0  0  0  0  0
    4.5688  -10.1291   29.5758 C   0  0  0  0  0  0  0  0  0  0  0  0
    2.1008   -9.0410   29.1852 N   0  0  0  0  0  0  0  0  0  0  0  0
    3.4829  -10.5697   30.2091 N   0  0  0  0  0  0  0  0  0  0  0  0
   -0.3363   -6.1172   27.5628 C   0  0  0  0  0  0  0  0  0  0  0  0
    3.0331   -7.4400   27.6362 C   0  0  0  0  0  0  0  0  0  0  0  0
    5.4553   -8.5933   27.9644 C   0  0  0  0  0  0  0  0  0  0  0  0
   -2.3870  -12.8440   19.2512 C   0  0  0  0  0  0  0  0  0  0  0  0
    0.5331   -7.6964   16.2751 C   0  0  0  0  0  0  0  0  0  0  0  0
   -0.6740  -10.8737   18.0482 C   0  0  0  0  0  0  0  0  0  0  0  0
    5.6751  -10.5870   29.7637 O   0  0  0  0  0  0  0  0  0  0  0  0
    1.7612   -5.6483   26.7172 C   0  0  0  0  0  0  0  0  0  0  0  0
    0.2221   -9.8326   17.4055 C   0  0  0  0  0  0  0  0  0  0  0  0
    4.3850   -9.0730   28.6745 C   0  0  0  0  0  0  0  0  0  0  0  0
  1  7  4  0
  1 22  4  0
  2 17  4  0
  2 20  4  0
  2 28  4  0
  3  6  1  0
  3 19  1  0
  4 19  1  0
  4 26  1  0
  5 17  4  0
  5 18  4  0
  6 20  1  0
  6 26  1  0
  7 24  4  0
  8 15  4  0
  8 24  4  0
  9 14  4  0
  9 21  4  0
 10 12  4  0
 10 27  4  0
 11 12  4  0
 11 23  4  0
 13 23  4  0
 13 27  4  0
 14 20  4  0
 15 22  4  0
 16 18  4  0
 16 25  2  0
 16 28  4  0
 21 28  4  0
 24 27  1  0
M  END
$$$$

 Created by Python create_sdf_string function

 28 31  0  0  0  0  0  0  0  0999 V2000
   -1.0054  -13.0622   19.1198 C   0  0  0  0  0  0  0  0  0  0  0  0
    3.1478   -8.5360   28.5161 C   0  0  0  0  0  0  0  0  0  0  0  0
    0.5798   -7.1906   27.9330 C   0  0  0  0  0  0  0  0  0  0  0  0
    0.3978   -5.1561   26.6955 C   0  0  0  0  0  0  0  0  0  0  0  0
    2.3063  -10.0533   30.0125 C   0  0  0  0  0  0  0  0  0  0  0  0
    1.8591   -6.8254   27.4685 N   0  0  0  0  0  0  0  0  0  0  0  0
   -0.2167  -12.1055   18.5568 C   0  0  0  0  0  0  0  0  0  0  0  0
   -2.0661  -10.6994   18.1916 C   0  0  0  0  0  0  0  0  0  0  0  0
    5.2703   -7.5691   27.1123 C   0  0  0  0  0  0  0  0  0  0  0  0
    1.6204   -9.9887   17.2935 C   0  0  0  0  0  0  0  0  0  0  0  0
    1.8931   -7.9265   16.2047 C   0  0  0  0  0  0  0  0  0  0  0  0
    2.4396   -9.0801   16.7132 C   0  0  0  0  0  0  0  0  0  0  0  0
   -0.2575   -8.6234   16.8582 C   0  0  0  0  0  0  0  0  0  0  0  0
    4.0614   -7.0367   27.0106 N   0  0  0  0  0  0  0  0  0  0  0  0
   -2.9133  -11.6279   18.7578 C   0  0  0  0  0  0  0  0  0  0  0  0
    4.5688  -10.1291   29.5758 C   0  0  0  0  0  0  0  0  0  0  0  0
    2.1008   -9.0410   29.1852 N   0  0  0  0  0  0  0  0  0  0  0  0
    3.4829  -10.5697   30.2091 N   0  0  0  0  0  0  0  0  0  0  0  0
   -0.3363   -6.1172   27.5628 C   0  0  0  0  0  0  0  0  0  0  0  0
    3.0331   -7.4400   27.6362 C   0  0  0  0  0  0  0  0  0  0  0  0
    5.4553   -8.5933   27.9644 C   0  0  0  0  0  0  0  0  0  0  0  0
   -2.3870  -12.8440   19.2512 C   0  0  0  0  0  0  0  0  0  0  0  0
    0.5331   -7.6964   16.2751 C   0  0  0  0  0  0  0  0  0  0  0  0
   -0.6740  -10.8737   18.0482 C   0  0  0  0  0  0  0  0  0  0  0  0
    5.6751  -10.5870   29.7637 O   0  0  0  0  0  0  0  0  0  0  0  0
    1.7612   -5.6483   26.7172 C   0  0  0  0  0  0  0  0  0  0  0  0
    0.2221   -9.8326   17.4055 C   0  0  0  0  0  0  0  0  0  0  0  0
    4.3850   -9.0730   28.6745 C   0  0  0  0  0  0  0  0  0  0  0  0
  1  7  4  0
  1 22  4  0
  2 17  4  0
  2 20  4  0
  2 28  4  0
  3  6  1  0
  3 19  1  0
  4 19  1  0
  4 26  1  0
  5 17  4  0
  5 18  4  0
  6 20  1  0
  6 26  1  0
  7 24  4  0
  8 15  4  0
  8 24  4  0
  9 14  4  0
  9 21  4  0
 10 12  4  0
 10 27  4  0
 11 12  4  0
 11 23  4  0
 13 23  4  0
 13 27  4  0
 14 20  4  0
 15 22  4  0
 16 18  4  0
 16 25  2  0
 16 28  4  0
 21 28  4  0
 24 27  1  0
M  END
$$$$

 Created by Python create_sdf_string function

 28 31  0  0  0  0  0  0  0  0999 V2000
   -1.0054  -13.0622   19.1198 C   0  0  0  0  0  0  0  0  0  0  0  0
    3.1478   -8.5360   28.5161 C   0  0  0  0  0  0  0  0  0  0  0  0
    0.5798   -7.1906   27.9330 C   0  0  0  0  0  0  0  0  0  0  0  0
    0.3978   -5.1561   26.6955 C   0  0  0  0  0  0  0  0  0  0  0  0
    2.3063  -10.0533   30.0125 C   0  0  0  0  0  0  0  0  0  0  0  0
    1.8591   -6.8254   27.4685 N   0  0  0  0  0  0  0  0  0  0  0  0
   -0.2167  -12.1055   18.5568 C   0  0  0  0  0  0  0  0  0  0  0  0
   -2.0661  -10.6994   18.1916 C   0  0  0  0  0  0  0  0  0  0  0  0
    5.2703   -7.5691   27.1123 C   0  0  0  0  0  0  0  0  0  0  0  0
    1.6204   -9.9887   17.2935 C   0  0  0  0  0  0  0  0  0  0  0  0
    1.8931   -7.9265   16.2047 C   0  0  0  0  0  0  0  0  0  0  0  0
    2.4396   -9.0801   16.7132 C   0  0  0  0  0  0  0  0  0  0  0  0
   -0.2575   -8.6234   16.8582 C   0  0  0  0  0  0  0  0  0  0  0  0
    4.0614   -7.0367   27.0106 N   0  0  0  0  0  0  0  0  0  0  0  0
   -2.9133  -11.6279   18.7578 C   0  0  0  0  0  0  0  0  0  0  0  0
    4.5688  -10.1291   29.5758 C   0  0  0  0  0  0  0  0  0  0  0  0
    2.1008   -9.0410   29.1852 N   0  0  0  0  0  0  0  0  0  0  0  0
    3.4829  -10.5697   30.2091 N   0  0  0  0  0  0  0  0  0  0  0  0
   -0.3363   -6.1172   27.5628 C   0  0  0  0  0  0  0  0  0  0  0  0
    3.0331   -7.4400   27.6362 C   0  0  0  0  0  0  0  0  0  0  0  0
    5.4553   -8.5933   27.9644 C   0  0  0  0  0  0  0  0  0  0  0  0
   -2.3870  -12.8440   19.2512 C   0  0  0  0  0  0  0  0  0  0  0  0
    0.5331   -7.6964   16.2751 C   0  0  0  0  0  0  0  0  0  0  0  0
   -0.6740  -10.8737   18.0482 C   0  0  0  0  0  0  0  0  0  0  0  0
    5.6751  -10.5870   29.7637 O   0  0  0  0  0  0  0  0  0  0  0  0
    1.7612   -5.6483   26.7172 C   0  0  0  0  0  0  0  0  0  0  0  0
    0.2221   -9.8326   17.4055 C   0  0  0  0  0  0  0  0  0  0  0  0
    4.3850   -9.0730   28.6745 C   0  0  0  0  0  0  0  0  0  0  0  0
  1  7  4  0
  1 22  4  0
  2 17  4  0
  2 20  4  0
  2 28  4  0
  3  6  1  0
  3 19  1  0
  4 19  1  0
  4 26  1  0
  5 17  4  0
  5 18  4  0
  6 20  1  0
  6 26  1  0
  7 24  4  0
  8 15  4  0
  8 24  4  0
  9 14  4  0
  9 21  4  0
 10 12  4  0
 10 27  4  0
 11 12  4  0
 11 23  4  0
 13 23  4  0
 13 27  4  0
 14 20  4  0
 15 22  4  0
 16 18  4  0
 16 25  2  0
 16 28  4  0
 21 28  4  0
 24 27  1  0
M  END
$$$$

 Created by Python create_sdf_string function

 28 31  0  0  0  0  0  0  0  0999 V2000
   -1.0054  -13.0622   19.1198 C   0  0  0  0  0  0  0  0  0  0  0  0
    3.1478   -8.5360   28.5161 C   0  0  0  0  0  0  0  0  0  0  0  0
    0.5798   -7.1906   27.9330 C   0  0  0  0  0  0  0  0  0  0  0  0
    0.3978   -5.1561   26.6955 C   0  0  0  0  0  0  0  0  0  0  0  0
    2.3063  -10.0533   30.0125 C   0  0  0  0  0  0  0  0  0  0  0  0
    1.8591   -6.8254   27.4685 N   0  0  0  0  0  0  0  0  0  0  0  0
   -0.2167  -12.1055   18.5568 C   0  0  0  0  0  0  0  0  0  0  0  0
   -2.0661  -10.6994   18.1916 C   0  0  0  0  0  0  0  0  0  0  0  0
    5.2703   -7.5691   27.1123 C   0  0  0  0  0  0  0  0  0  0  0  0
    1.6204   -9.9887   17.2935 C   0  0  0  0  0  0  0  0  0  0  0  0
    1.8931   -7.9265   16.2047 C   0  0  0  0  0  0  0  0  0  0  0  0
    2.4396   -9.0801   16.7132 C   0  0  0  0  0  0  0  0  0  0  0  0
   -0.2575   -8.6234   16.8582 C   0  0  0  0  0  0  0  0  0  0  0  0
    4.0614   -7.0367   27.0106 N   0  0  0  0  0  0  0  0  0  0  0  0
   -2.9133  -11.6279   18.7578 C   0  0  0  0  0  0  0  0  0  0  0  0
    4.5688  -10.1291   29.5758 C   0  0  0  0  0  0  0  0  0  0  0  0
    2.1008   -9.0410   29.1852 N   0  0  0  0  0  0  0  0  0  0  0  0
    3.4829  -10.5697   30.2091 N   0  0  0  0  0  0  0  0  0  0  0  0
   -0.3363   -6.1172   27.5628 C   0  0  0  0  0  0  0  0  0  0  0  0
    3.0331   -7.4400   27.6362 C   0  0  0  0  0  0  0  0  0  0  0  0
    5.4553   -8.5933   27.9644 C   0  0  0  0  0  0  0  0  0  0  0  0
   -2.3870  -12.8440   19.2512 C   0  0  0  0  0  0  0  0  0  0  0  0
    0.5331   -7.6964   16.2751 C   0  0  0  0  0  0  0  0  0  0  0  0
   -0.6740  -10.8737   18.0482 C   0  0  0  0  0  0  0  0  0  0  0  0
    5.6751  -10.5870   29.7637 O   0  0  0  0  0  0  0  0  0  0  0  0
    1.7612   -5.6483   26.7172 C   0  0  0  0  0  0  0  0  0  0  0  0
    0.2221   -9.8326   17.4055 C   0  0  0  0  0  0  0  0  0  0  0  0
    4.3850   -9.0730   28.6745 C   0  0  0  0  0  0  0  0  0  0  0  0
  1  7  4  0
  1 22  4  0
  2 17  4  0
  2 20  4  0
  2 28  4  0
  3  6  1  0
  3 19  1  0
  4 19  1  0
  4 26  1  0
  5 17  4  0
  5 18  4  0
  6 20  1  0
  6 26  1  0
  7 24  4  0
  8 15  4  0
  8 24  4  0
  9 14  4  0
  9 21  4  0
 10 12  4  0
 10 27  4  0
 11 12  4  0
 11 23  4  0
 13 23  4  0
 13 27  4  0
 14 20  4  0
 15 22  4  0
 16 18  4  0
 16 25  2  0
 16 28  4  0
 21 28  4  0
 24 27  1  0
M  END
$$$$

 Created by Python create_sdf_string function

 28 31  0  0  0  0  0  0  0  0999 V2000
   -1.0054  -13.0622   19.1198 C   0  0  0  0  0  0  0  0  0  0  0  0
    3.1478   -8.5360   28.5161 C   0  0  0  0  0  0  0  0  0  0  0  0
    0.5798   -7.1906   27.9330 C   0  0  0  0  0  0  0  0  0  0  0  0
    0.3978   -5.1561   26.6955 C   0  0  0  0  0  0  0  0  0  0  0  0
    2.3063  -10.0533   30.0125 C   0  0  0  0  0  0  0  0  0  0  0  0
    1.8591   -6.8254   27.4685 N   0  0  0  0  0  0  0  0  0  0  0  0
   -0.2167  -12.1055   18.5568 C   0  0  0  0  0  0  0  0  0  0  0  0
   -2.0661  -10.6994   18.1916 C   0  0  0  0  0  0  0  0  0  0  0  0
    5.2703   -7.5691   27.1123 C   0  0  0  0  0  0  0  0  0  0  0  0
    1.6204   -9.9887   17.2935 C   0  0  0  0  0  0  0  0  0  0  0  0
    1.8931   -7.9265   16.2047 C   0  0  0  0  0  0  0  0  0  0  0  0
    2.4396   -9.0801   16.7132 C   0  0  0  0  0  0  0  0  0  0  0  0
   -0.2575   -8.6234   16.8582 C   0  0  0  0  0  0  0  0  0  0  0  0
    4.0614   -7.0367   27.0106 N   0  0  0  0  0  0  0  0  0  0  0  0
   -2.9133  -11.6279   18.7578 C   0  0  0  0  0  0  0  0  0  0  0  0
    4.5688  -10.1291   29.5758 C   0  0  0  0  0  0  0  0  0  0  0  0
    2.1008   -9.0410   29.1852 N   0  0  0  0  0  0  0  0  0  0  0  0
    3.4829  -10.5697   30.2091 N   0  0  0  0  0  0  0  0  0  0  0  0
   -0.3363   -6.1172   27.5628 C   0  0  0  0  0  0  0  0  0  0  0  0
    3.0331   -7.4400   27.6362 C   0  0  0  0  0  0  0  0  0  0  0  0
    5.4553   -8.5933   27.9644 C   0  0  0  0  0  0  0  0  0  0  0  0
   -2.3870  -12.8440   19.2512 C   0  0  0  0  0  0  0  0  0  0  0  0
    0.5331   -7.6964   16.2751 C   0  0  0  0  0  0  0  0  0  0  0  0
   -0.6740  -10.8737   18.0482 C   0  0  0  0  0  0  0  0  0  0  0  0
    5.6751  -10.5870   29.7637 O   0  0  0  0  0  0  0  0  0  0  0  0
    1.7612   -5.6483   26.7172 C   0  0  0  0  0  0  0  0  0  0  0  0
    0.2221   -9.8326   17.4055 C   0  0  0  0  0  0  0  0  0  0  0  0
    4.3850   -9.0730   28.6745 C   0  0  0  0  0  0  0  0  0  0  0  0
  1  7  4  0
  1 22  4  0
  2 17  4  0
  2 20  4  0
  2 28  4  0
  3  6  1  0
  3 19  1  0
  4 19  1  0
  4 26  1  0
  5 17  4  0
  5 18  4  0
  6 20  1  0
  6 26  1  0
  7 24  4  0
  8 15  4  0
  8 24  4  0
  9 14  4  0
  9 21  4  0
 10 12  4  0
 10 27  4  0
 11 12  4  0
 11 23  4  0
 13 23  4  0
 13 27  4  0
 14 20  4  0
 15 22  4  0
 16 18  4  0
 16 25  2  0
 16 28  4  0
 21 28  4  0
 24 27  1  0
M  END
$$$$

 Created by Python create_sdf_string function

 28 31  0  0  0  0  0  0  0  0999 V2000
   -1.0054  -13.0622   19.1198 C   0  0  0  0  0  0  0  0  0  0  0  0
    3.1478   -8.5360   28.5161 C   0  0  0  0  0  0  0  0  0  0  0  0
    0.5798   -7.1906   27.9330 C   0  0  0  0  0  0  0  0  0  0  0  0
    0.3978   -5.1561   26.6955 C   0  0  0  0  0  0  0  0  0  0  0  0
    2.3063  -10.0533   30.0125 C   0  0  0  0  0  0  0  0  0  0  0  0
    1.8591   -6.8254   27.4685 N   0  0  0  0  0  0  0  0  0  0  0  0
   -0.2167  -12.1055   18.5568 C   0  0  0  0  0  0  0  0  0  0  0  0
   -2.0661  -10.6994   18.1916 C   0  0  0  0  0  0  0  0  0  0  0  0
    5.2703   -7.5691   27.1123 C   0  0  0  0  0  0  0  0  0  0  0  0
    1.6204   -9.9887   17.2935 C   0  0  0  0  0  0  0  0  0  0  0  0
    1.8931   -7.9265   16.2047 C   0  0  0  0  0  0  0  0  0  0  0  0
    2.4396   -9.0801   16.7132 C   0  0  0  0  0  0  0  0  0  0  0  0
   -0.2575   -8.6234   16.8582 C   0  0  0  0  0  0  0  0  0  0  0  0
    4.0614   -7.0367   27.0106 N   0  0  0  0  0  0  0  0  0  0  0  0
   -2.9133  -11.6279   18.7578 C   0  0  0  0  0  0  0  0  0  0  0  0
    4.5688  -10.1291   29.5758 C   0  0  0  0  0  0  0  0  0  0  0  0
    2.1008   -9.0410   29.1852 N   0  0  0  0  0  0  0  0  0  0  0  0
    3.4829  -10.5697   30.2091 N   0  0  0  0  0  0  0  0  0  0  0  0
   -0.3363   -6.1172   27.5628 C   0  0  0  0  0  0  0  0  0  0  0  0
    3.0331   -7.4400   27.6362 C   0  0  0  0  0  0  0  0  0  0  0  0
    5.4553   -8.5933   27.9644 C   0  0  0  0  0  0  0  0  0  0  0  0
   -2.3870  -12.8440   19.2512 C   0  0  0  0  0  0  0  0  0  0  0  0
    0.5331   -7.6964   16.2751 C   0  0  0  0  0  0  0  0  0  0  0  0
   -0.6740  -10.8737   18.0482 C   0  0  0  0  0  0  0  0  0  0  0  0
    5.6751  -10.5870   29.7637 O   0  0  0  0  0  0  0  0  0  0  0  0
    1.7612   -5.6483   26.7172 C   0  0  0  0  0  0  0  0  0  0  0  0
    0.2221   -9.8326   17.4055 C   0  0  0  0  0  0  0  0  0  0  0  0
    4.3850   -9.0730   28.6745 C   0  0  0  0  0  0  0  0  0  0  0  0
  1  7  4  0
  1 22  4  0
  2 17  4  0
  2 20  4  0
  2 28  4  0
  3  6  1  0
  3 19  1  0
  4 19  1  0
  4 26  1  0
  5 17  4  0
  5 18  4  0
  6 20  1  0
  6 26  1  0
  7 24  4  0
  8 15  4  0
  8 24  4  0
  9 14  4  0
  9 21  4  0
 10 12  4  0
 10 27  4  0
 11 12  4  0
 11 23  4  0
 13 23  4  0
 13 27  4  0
 14 20  4  0
 15 22  4  0
 16 18  4  0
 16 25  2  0
 16 28  4  0
 21 28  4  0
 24 27  1  0
M  END
$$$$

 Created by Python create_sdf_string function

 28 31  0  0  0  0  0  0  0  0999 V2000
   -1.0054  -13.0622   19.1198 C   0  0  0  0  0  0  0  0  0  0  0  0
    3.1478   -8.5360   28.5161 C   0  0  0  0  0  0  0  0  0  0  0  0
    0.5798   -7.1906   27.9330 C   0  0  0  0  0  0  0  0  0  0  0  0
    0.3978   -5.1561   26.6955 C   0  0  0  0  0  0  0  0  0  0  0  0
    2.3063  -10.0533   30.0125 C   0  0  0  0  0  0  0  0  0  0  0  0
    1.8591   -6.8254   27.4685 N   0  0  0  0  0  0  0  0  0  0  0  0
   -0.2167  -12.1055   18.5568 C   0  0  0  0  0  0  0  0  0  0  0  0
   -2.0661  -10.6994   18.1916 C   0  0  0  0  0  0  0  0  0  0  0  0
    5.2703   -7.5691   27.1123 C   0  0  0  0  0  0  0  0  0  0  0  0
    1.6204   -9.9887   17.2935 C   0  0  0  0  0  0  0  0  0  0  0  0
    1.8931   -7.9265   16.2047 C   0  0  0  0  0  0  0  0  0  0  0  0
    2.4396   -9.0801   16.7132 C   0  0  0  0  0  0  0  0  0  0  0  0
   -0.2575   -8.6234   16.8582 C   0  0  0  0  0  0  0  0  0  0  0  0
    4.0614   -7.0367   27.0106 N   0  0  0  0  0  0  0  0  0  0  0  0
   -2.9133  -11.6279   18.7578 C   0  0  0  0  0  0  0  0  0  0  0  0
    4.5688  -10.1291   29.5758 C   0  0  0  0  0  0  0  0  0  0  0  0
    2.1008   -9.0410   29.1852 N   0  0  0  0  0  0  0  0  0  0  0  0
    3.4829  -10.5697   30.2091 N   0  0  0  0  0  0  0  0  0  0  0  0
   -0.3363   -6.1172   27.5628 C   0  0  0  0  0  0  0  0  0  0  0  0
    3.0331   -7.4400   27.6362 C   0  0  0  0  0  0  0  0  0  0  0  0
    5.4553   -8.5933   27.9644 C   0  0  0  0  0  0  0  0  0  0  0  0
   -2.3870  -12.8440   19.2512 C   0  0  0  0  0  0  0  0  0  0  0  0
    0.5331   -7.6964   16.2751 C   0  0  0  0  0  0  0  0  0  0  0  0
   -0.6740  -10.8737   18.0482 C   0  0  0  0  0  0  0  0  0  0  0  0
    5.6751  -10.5870   29.7637 O   0  0  0  0  0  0  0  0  0  0  0  0
    1.7612   -5.6483   26.7172 C   0  0  0  0  0  0  0  0  0  0  0  0
    0.2221   -9.8326   17.4055 C   0  0  0  0  0  0  0  0  0  0  0  0
    4.3850   -9.0730   28.6745 C   0  0  0  0  0  0  0  0  0  0  0  0
  1  7  4  0
  1 22  4  0
  2 17  4  0
  2 20  4  0
  2 28  4  0
  3  6  1  0
  3 19  1  0
  4 19  1  0
  4 26  1  0
  5 17  4  0
  5 18  4  0
  6 20  1  0
  6 26  1  0
  7 24  4  0
  8 15  4  0
  8 24  4  0
  9 14  4  0
  9 21  4  0
 10 12  4  0
 10 27  4  0
 11 12  4  0
 11 23  4  0
 13 23  4  0
 13 27  4  0
 14 20  4  0
 15 22  4  0
 16 18  4  0
 16 25  2  0
 16 28  4  0
 21 28  4  0
 24 27  1  0
M  END
$$$$

 Created by Python create_sdf_string function

 28 31  0  0  0  0  0  0  0  0999 V2000
   -1.0054  -13.0622   19.1198 C   0  0  0  0  0  0  0  0  0  0  0  0
    3.1478   -8.5360   28.5161 C   0  0  0  0  0  0  0  0  0  0  0  0
    0.5798   -7.1906   27.9330 C   0  0  0  0  0  0  0  0  0  0  0  0
    0.3978   -5.1561   26.6955 C   0  0  0  0  0  0  0  0  0  0  0  0
    2.3063  -10.0533   30.0125 C   0  0  0  0  0  0  0  0  0  0  0  0
    1.8591   -6.8254   27.4685 N   0  0  0  0  0  0  0  0  0  0  0  0
   -0.2167  -12.1055   18.5568 C   0  0  0  0  0  0  0  0  0  0  0  0
   -2.0661  -10.6994   18.1916 C   0  0  0  0  0  0  0  0  0  0  0  0
    5.2703   -7.5691   27.1123 C   0  0  0  0  0  0  0  0  0  0  0  0
    1.6204   -9.9887   17.2935 C   0  0  0  0  0  0  0  0  0  0  0  0
    1.8931   -7.9265   16.2047 C   0  0  0  0  0  0  0  0  0  0  0  0
    2.4396   -9.0801   16.7132 C   0  0  0  0  0  0  0  0  0  0  0  0
   -0.2575   -8.6234   16.8582 C   0  0  0  0  0  0  0  0  0  0  0  0
    4.0614   -7.0367   27.0106 N   0  0  0  0  0  0  0  0  0  0  0  0
   -2.9133  -11.6279   18.7578 C   0  0  0  0  0  0  0  0  0  0  0  0
    4.5688  -10.1291   29.5758 C   0  0  0  0  0  0  0  0  0  0  0  0
    2.1008   -9.0410   29.1852 N   0  0  0  0  0  0  0  0  0  0  0  0
    3.4829  -10.5697   30.2091 N   0  0  0  0  0  0  0  0  0  0  0  0
   -0.3363   -6.1172   27.5628 C   0  0  0  0  0  0  0  0  0  0  0  0
    3.0331   -7.4400   27.6362 C   0  0  0  0  0  0  0  0  0  0  0  0
    5.4553   -8.5933   27.9644 C   0  0  0  0  0  0  0  0  0  0  0  0
   -2.3870  -12.8440   19.2512 C   0  0  0  0  0  0  0  0  0  0  0  0
    0.5331   -7.6964   16.2751 C   0  0  0  0  0  0  0  0  0  0  0  0
   -0.6740  -10.8737   18.0482 C   0  0  0  0  0  0  0  0  0  0  0  0
    5.6751  -10.5870   29.7637 O   0  0  0  0  0  0  0  0  0  0  0  0
    1.7612   -5.6483   26.7172 C   0  0  0  0  0  0  0  0  0  0  0  0
    0.2221   -9.8326   17.4055 C   0  0  0  0  0  0  0  0  0  0  0  0
    4.3850   -9.0730   28.6745 C   0  0  0  0  0  0  0  0  0  0  0  0
  1  7  4  0
  1 22  4  0
  2 17  4  0
  2 20  4  0
  2 28  4  0
  3  6  1  0
  3 19  1  0
  4 19  1  0
  4 26  1  0
  5 17  4  0
  5 18  4  0
  6 20  1  0
  6 26  1  0
  7 24  4  0
  8 15  4  0
  8 24  4  0
  9 14  4  0
  9 21  4  0
 10 12  4  0
 10 27  4  0
 11 12  4  0
 11 23  4  0
 13 23  4  0
 13 27  4  0
 14 20  4  0
 15 22  4  0
 16 18  4  0
 16 25  2  0
 16 28  4  0
 21 28  4  0
 24 27  1  0
M  END
$$$$

 Created by Python create_sdf_string function

 28 31  0  0  0  0  0  0  0  0999 V2000
   -1.0054  -13.0622   19.1198 C   0  0  0  0  0  0  0  0  0  0  0  0
    3.1478   -8.5360   28.5161 C   0  0  0  0  0  0  0  0  0  0  0  0
    0.5798   -7.1906   27.9330 C   0  0  0  0  0  0  0  0  0  0  0  0
    0.3978   -5.1561   26.6955 C   0  0  0  0  0  0  0  0  0  0  0  0
    2.3063  -10.0533   30.0125 C   0  0  0  0  0  0  0  0  0  0  0  0
    1.8591   -6.8254   27.4685 N   0  0  0  0  0  0  0  0  0  0  0  0
   -0.2167  -12.1055   18.5568 C   0  0  0  0  0  0  0  0  0  0  0  0
   -2.0661  -10.6994   18.1916 C   0  0  0  0  0  0  0  0  0  0  0  0
    5.2703   -7.5691   27.1123 C   0  0  0  0  0  0  0  0  0  0  0  0
    1.6204   -9.9887   17.2935 C   0  0  0  0  0  0  0  0  0  0  0  0
    1.8931   -7.9265   16.2047 C   0  0  0  0  0  0  0  0  0  0  0  0
    2.4396   -9.0801   16.7132 C   0  0  0  0  0  0  0  0  0  0  0  0
   -0.2575   -8.6234   16.8582 C   0  0  0  0  0  0  0  0  0  0  0  0
    4.0614   -7.0367   27.0106 N   0  0  0  0  0  0  0  0  0  0  0  0
   -2.9133  -11.6279   18.7578 C   0  0  0  0  0  0  0  0  0  0  0  0
    4.5688  -10.1291   29.5758 C   0  0  0  0  0  0  0  0  0  0  0  0
    2.1008   -9.0410   29.1852 N   0  0  0  0  0  0  0  0  0  0  0  0
    3.4829  -10.5697   30.2091 N   0  0  0  0  0  0  0  0  0  0  0  0
   -0.3363   -6.1172   27.5628 C   0  0  0  0  0  0  0  0  0  0  0  0
    3.0331   -7.4400   27.6362 C   0  0  0  0  0  0  0  0  0  0  0  0
    5.4553   -8.5933   27.9644 C   0  0  0  0  0  0  0  0  0  0  0  0
   -2.3870  -12.8440   19.2512 C   0  0  0  0  0  0  0  0  0  0  0  0
    0.5331   -7.6964   16.2751 C   0  0  0  0  0  0  0  0  0  0  0  0
   -0.6740  -10.8737   18.0482 C   0  0  0  0  0  0  0  0  0  0  0  0
    5.6751  -10.5870   29.7637 O   0  0  0  0  0  0  0  0  0  0  0  0
    1.7612   -5.6483   26.7172 C   0  0  0  0  0  0  0  0  0  0  0  0
    0.2221   -9.8326   17.4055 C   0  0  0  0  0  0  0  0  0  0  0  0
    4.3850   -9.0730   28.6745 C   0  0  0  0  0  0  0  0  0  0  0  0
  1  7  4  0
  1 22  4  0
  2 17  4  0
  2 20  4  0
  2 28  4  0
  3  6  1  0
  3 19  1  0
  4 19  1  0
  4 26  1  0
  5 17  4  0
  5 18  4  0
  6 20  1  0
  6 26  1  0
  7 24  4  0
  8 15  4  0
  8 24  4  0
  9 14  4  0
  9 21  4  0
 10 12  4  0
 10 27  4  0
 11 12  4  0
 11 23  4  0
 13 23  4  0
 13 27  4  0
 14 20  4  0
 15 22  4  0
 16 18  4  0
 16 25  2  0
 16 28  4  0
 21 28  4  0
 24 27  1  0
M  END
$$$$

 Created by Python create_sdf_string function

 28 31  0  0  0  0  0  0  0  0999 V2000
   -1.0054  -13.0622   19.1198 C   0  0  0  0  0  0  0  0  0  0  0  0
    3.1478   -8.5360   28.5161 C   0  0  0  0  0  0  0  0  0  0  0  0
    0.5798   -7.1906   27.9330 C   0  0  0  0  0  0  0  0  0  0  0  0
    0.3978   -5.1561   26.6955 C   0  0  0  0  0  0  0  0  0  0  0  0
    2.3063  -10.0533   30.0125 C   0  0  0  0  0  0  0  0  0  0  0  0
    1.8591   -6.8254   27.4685 N   0  0  0  0  0  0  0  0  0  0  0  0
   -0.2167  -12.1055   18.5568 C   0  0  0  0  0  0  0  0  0  0  0  0
   -2.0661  -10.6994   18.1916 C   0  0  0  0  0  0  0  0  0  0  0  0
    5.2703   -7.5691   27.1123 C   0  0  0  0  0  0  0  0  0  0  0  0
    1.6204   -9.9887   17.2935 C   0  0  0  0  0  0  0  0  0  0  0  0
    1.8931   -7.9265   16.2047 C   0  0  0  0  0  0  0  0  0  0  0  0
    2.4396   -9.0801   16.7132 C   0  0  0  0  0  0  0  0  0  0  0  0
   -0.2575   -8.6234   16.8582 C   0  0  0  0  0  0  0  0  0  0  0  0
    4.0614   -7.0367   27.0106 N   0  0  0  0  0  0  0  0  0  0  0  0
   -2.9133  -11.6279   18.7578 C   0  0  0  0  0  0  0  0  0  0  0  0
    4.5688  -10.1291   29.5758 C   0  0  0  0  0  0  0  0  0  0  0  0
    2.1008   -9.0410   29.1852 N   0  0  0  0  0  0  0  0  0  0  0  0
    3.4829  -10.5697   30.2091 N   0  0  0  0  0  0  0  0  0  0  0  0
   -0.3363   -6.1172   27.5628 C   0  0  0  0  0  0  0  0  0  0  0  0
    3.0331   -7.4400   27.6362 C   0  0  0  0  0  0  0  0  0  0  0  0
    5.4553   -8.5933   27.9644 C   0  0  0  0  0  0  0  0  0  0  0  0
   -2.3870  -12.8440   19.2512 C   0  0  0  0  0  0  0  0  0  0  0  0
    0.5331   -7.6964   16.2751 C   0  0  0  0  0  0  0  0  0  0  0  0
   -0.6740  -10.8737   18.0482 C   0  0  0  0  0  0  0  0  0  0  0  0
    5.6751  -10.5870   29.7637 O   0  0  0  0  0  0  0  0  0  0  0  0
    1.7612   -5.6483   26.7172 C   0  0  0  0  0  0  0  0  0  0  0  0
    0.2221   -9.8326   17.4055 C   0  0  0  0  0  0  0  0  0  0  0  0
    4.3850   -9.0730   28.6745 C   0  0  0  0  0  0  0  0  0  0  0  0
  1  7  4  0
  1 22  4  0
  2 17  4  0
  2 20  4  0
  2 28  4  0
  3  6  1  0
  3 19  1  0
  4 19  1  0
  4 26  1  0
  5 17  4  0
  5 18  4  0
  6 20  1  0
  6 26  1  0
  7 24  4  0
  8 15  4  0
  8 24  4  0
  9 14  4  0
  9 21  4  0
 10 12  4  0
 10 27  4  0
 11 12  4  0
 11 23  4  0
 13 23  4  0
 13 27  4  0
 14 20  4  0
 15 22  4  0
 16 18  4  0
 16 25  2  0
 16 28  4  0
 21 28  4  0
 24 27  1  0
M  END
$$$$

 Created by Python create_sdf_string function

 28 31  0  0  0  0  0  0  0  0999 V2000
   -1.0054  -13.0622   19.1198 C   0  0  0  0  0  0  0  0  0  0  0  0
    3.1478   -8.5360   28.5161 C   0  0  0  0  0  0  0  0  0  0  0  0
    0.5798   -7.1906   27.9330 C   0  0  0  0  0  0  0  0  0  0  0  0
    0.3978   -5.1561   26.6955 C   0  0  0  0  0  0  0  0  0  0  0  0
    2.3063  -10.0533   30.0125 C   0  0  0  0  0  0  0  0  0  0  0  0
    1.8591   -6.8254   27.4685 N   0  0  0  0  0  0  0  0  0  0  0  0
   -0.2167  -12.1055   18.5568 C   0  0  0  0  0  0  0  0  0  0  0  0
   -2.0661  -10.6994   18.1916 C   0  0  0  0  0  0  0  0  0  0  0  0
    5.2703   -7.5691   27.1123 C   0  0  0  0  0  0  0  0  0  0  0  0
    1.6204   -9.9887   17.2935 C   0  0  0  0  0  0  0  0  0  0  0  0
    1.8931   -7.9265   16.2047 C   0  0  0  0  0  0  0  0  0  0  0  0
    2.4396   -9.0801   16.7132 C   0  0  0  0  0  0  0  0  0  0  0  0
   -0.2575   -8.6234   16.8582 C   0  0  0  0  0  0  0  0  0  0  0  0
    4.0614   -7.0367   27.0106 N   0  0  0  0  0  0  0  0  0  0  0  0
   -2.9133  -11.6279   18.7578 C   0  0  0  0  0  0  0  0  0  0  0  0
    4.5688  -10.1291   29.5758 C   0  0  0  0  0  0  0  0  0  0  0  0
    2.1008   -9.0410   29.1852 N   0  0  0  0  0  0  0  0  0  0  0  0
    3.4829  -10.5697   30.2091 N   0  0  0  0  0  0  0  0  0  0  0  0
   -0.3363   -6.1172   27.5628 C   0  0  0  0  0  0  0  0  0  0  0  0
    3.0331   -7.4400   27.6362 C   0  0  0  0  0  0  0  0  0  0  0  0
    5.4553   -8.5933   27.9644 C   0  0  0  0  0  0  0  0  0  0  0  0
   -2.3870  -12.8440   19.2512 C   0  0  0  0  0  0  0  0  0  0  0  0
    0.5331   -7.6964   16.2751 C   0  0  0  0  0  0  0  0  0  0  0  0
   -0.6740  -10.8737   18.0482 C   0  0  0  0  0  0  0  0  0  0  0  0
    5.6751  -10.5870   29.7637 O   0  0  0  0  0  0  0  0  0  0  0  0
    1.7612   -5.6483   26.7172 C   0  0  0  0  0  0  0  0  0  0  0  0
    0.2221   -9.8326   17.4055 C   0  0  0  0  0  0  0  0  0  0  0  0
    4.3850   -9.0730   28.6745 C   0  0  0  0  0  0  0  0  0  0  0  0
  1  7  4  0
  1 22  4  0
  2 17  4  0
  2 20  4  0
  2 28  4  0
  3  6  1  0
  3 19  1  0
  4 19  1  0
  4 26  1  0
  5 17  4  0
  5 18  4  0
  6 20  1  0
  6 26  1  0
  7 24  4  0
  8 15  4  0
  8 24  4  0
  9 14  4  0
  9 21  4  0
 10 12  4  0
 10 27  4  0
 11 12  4  0
 11 23  4  0
 13 23  4  0
 13 27  4  0
 14 20  4  0
 15 22  4  0
 16 18  4  0
 16 25  2  0
 16 28  4  0
 21 28  4  0
 24 27  1  0
M  END
$$$$

 Created by Python create_sdf_string function

 28 31  0  0  0  0  0  0  0  0999 V2000
   -1.0054  -13.0622   19.1198 C   0  0  0  0  0  0  0  0  0  0  0  0
    3.1478   -8.5360   28.5161 C   0  0  0  0  0  0  0  0  0  0  0  0
    0.5798   -7.1906   27.9330 C   0  0  0  0  0  0  0  0  0  0  0  0
    0.3978   -5.1561   26.6955 C   0  0  0  0  0  0  0  0  0  0  0  0
    2.3063  -10.0533   30.0125 C   0  0  0  0  0  0  0  0  0  0  0  0
    1.8591   -6.8254   27.4685 N   0  0  0  0  0  0  0  0  0  0  0  0
   -0.2167  -12.1055   18.5568 C   0  0  0  0  0  0  0  0  0  0  0  0
   -2.0661  -10.6994   18.1916 C   0  0  0  0  0  0  0  0  0  0  0  0
    5.2703   -7.5691   27.1123 C   0  0  0  0  0  0  0  0  0  0  0  0
    1.6204   -9.9887   17.2935 C   0  0  0  0  0  0  0  0  0  0  0  0
    1.8931   -7.9265   16.2047 C   0  0  0  0  0  0  0  0  0  0  0  0
    2.4396   -9.0801   16.7132 C   0  0  0  0  0  0  0  0  0  0  0  0
   -0.2575   -8.6234   16.8582 C   0  0  0  0  0  0  0  0  0  0  0  0
    4.0614   -7.0367   27.0106 N   0  0  0  0  0  0  0  0  0  0  0  0
   -2.9133  -11.6279   18.7578 C   0  0  0  0  0  0  0  0  0  0  0  0
    4.5688  -10.1291   29.5758 C   0  0  0  0  0  0  0  0  0  0  0  0
    2.1008   -9.0410   29.1852 N   0  0  0  0  0  0  0  0  0  0  0  0
    3.4829  -10.5697   30.2091 N   0  0  0  0  0  0  0  0  0  0  0  0
   -0.3363   -6.1172   27.5628 C   0  0  0  0  0  0  0  0  0  0  0  0
    3.0331   -7.4400   27.6362 C   0  0  0  0  0  0  0  0  0  0  0  0
    5.4553   -8.5933   27.9644 C   0  0  0  0  0  0  0  0  0  0  0  0
   -2.3870  -12.8440   19.2512 C   0  0  0  0  0  0  0  0  0  0  0  0
    0.5331   -7.6964   16.2751 C   0  0  0  0  0  0  0  0  0  0  0  0
   -0.6740  -10.8737   18.0482 C   0  0  0  0  0  0  0  0  0  0  0  0
    5.6751  -10.5870   29.7637 O   0  0  0  0  0  0  0  0  0  0  0  0
    1.7612   -5.6483   26.7172 C   0  0  0  0  0  0  0  0  0  0  0  0
    0.2221   -9.8326   17.4055 C   0  0  0  0  0  0  0  0  0  0  0  0
    4.3850   -9.0730   28.6745 C   0  0  0  0  0  0  0  0  0  0  0  0
  1  7  4  0
  1 22  4  0
  2 17  4  0
  2 20  4  0
  2 28  4  0
  3  6  1  0
  3 19  1  0
  4 19  1  0
  4 26  1  0
  5 17  4  0
  5 18  4  0
  6 20  1  0
  6 26  1  0
  7 24  4  0
  8 15  4  0
  8 24  4  0
  9 14  4  0
  9 21  4  0
 10 12  4  0
 10 27  4  0
 11 12  4  0
 11 23  4  0
 13 23  4  0
 13 27  4  0
 14 20  4  0
 15 22  4  0
 16 18  4  0
 16 25  2  0
 16 28  4  0
 21 28  4  0
 24 27  1  0
M  END
$$$$

 Created by Python create_sdf_string function

 28 31  0  0  0  0  0  0  0  0999 V2000
   -1.0054  -13.0622   19.1198 C   0  0  0  0  0  0  0  0  0  0  0  0
    3.1478   -8.5360   28.5161 C   0  0  0  0  0  0  0  0  0  0  0  0
    0.5798   -7.1906   27.9330 C   0  0  0  0  0  0  0  0  0  0  0  0
    0.3978   -5.1561   26.6955 C   0  0  0  0  0  0  0  0  0  0  0  0
    2.3063  -10.0533   30.0125 C   0  0  0  0  0  0  0  0  0  0  0  0
    1.8591   -6.8254   27.4685 N   0  0  0  0  0  0  0  0  0  0  0  0
   -0.2167  -12.1055   18.5568 C   0  0  0  0  0  0  0  0  0  0  0  0
   -2.0661  -10.6994   18.1916 C   0  0  0  0  0  0  0  0  0  0  0  0
    5.2703   -7.5691   27.1123 C   0  0  0  0  0  0  0  0  0  0  0  0
    1.6204   -9.9887   17.2935 C   0  0  0  0  0  0  0  0  0  0  0  0
    1.8931   -7.9265   16.2047 C   0  0  0  0  0  0  0  0  0  0  0  0
    2.4396   -9.0801   16.7132 C   0  0  0  0  0  0  0  0  0  0  0  0
   -0.2575   -8.6234   16.8582 C   0  0  0  0  0  0  0  0  0  0  0  0
    4.0614   -7.0367   27.0106 N   0  0  0  0  0  0  0  0  0  0  0  0
   -2.9133  -11.6279   18.7578 C   0  0  0  0  0  0  0  0  0  0  0  0
    4.5688  -10.1291   29.5758 C   0  0  0  0  0  0  0  0  0  0  0  0
    2.1008   -9.0410   29.1852 N   0  0  0  0  0  0  0  0  0  0  0  0
    3.4829  -10.5697   30.2091 N   0  0  0  0  0  0  0  0  0  0  0  0
   -0.3363   -6.1172   27.5628 C   0  0  0  0  0  0  0  0  0  0  0  0
    3.0331   -7.4400   27.6362 C   0  0  0  0  0  0  0  0  0  0  0  0
    5.4553   -8.5933   27.9644 C   0  0  0  0  0  0  0  0  0  0  0  0
   -2.3870  -12.8440   19.2512 C   0  0  0  0  0  0  0  0  0  0  0  0
    0.5331   -7.6964   16.2751 C   0  0  0  0  0  0  0  0  0  0  0  0
   -0.6740  -10.8737   18.0482 C   0  0  0  0  0  0  0  0  0  0  0  0
    5.6751  -10.5870   29.7637 O   0  0  0  0  0  0  0  0  0  0  0  0
    1.7612   -5.6483   26.7172 C   0  0  0  0  0  0  0  0  0  0  0  0
    0.2221   -9.8326   17.4055 C   0  0  0  0  0  0  0  0  0  0  0  0
    4.3850   -9.0730   28.6745 C   0  0  0  0  0  0  0  0  0  0  0  0
  1  7  4  0
  1 22  4  0
  2 17  4  0
  2 20  4  0
  2 28  4  0
  3  6  1  0
  3 19  1  0
  4 19  1  0
  4 26  1  0
  5 17  4  0
  5 18  4  0
  6 20  1  0
  6 26  1  0
  7 24  4  0
  8 15  4  0
  8 24  4  0
  9 14  4  0
  9 21  4  0
 10 12  4  0
 10 27  4  0
 11 12  4  0
 11 23  4  0
 13 23  4  0
 13 27  4  0
 14 20  4  0
 15 22  4  0
 16 18  4  0
 16 25  2  0
 16 28  4  0
 21 28  4  0
 24 27  1  0
M  END
$$$$

 Created by Python create_sdf_string function

 28 31  0  0  0  0  0  0  0  0999 V2000
   -1.0054  -13.0622   19.1198 C   0  0  0  0  0  0  0  0  0  0  0  0
    3.1478   -8.5360   28.5161 C   0  0  0  0  0  0  0  0  0  0  0  0
    0.5798   -7.1906   27.9330 C   0  0  0  0  0  0  0  0  0  0  0  0
    0.3978   -5.1561   26.6955 C   0  0  0  0  0  0  0  0  0  0  0  0
    2.3063  -10.0533   30.0125 C   0  0  0  0  0  0  0  0  0  0  0  0
    1.8591   -6.8254   27.4685 N   0  0  0  0  0  0  0  0  0  0  0  0
   -0.2167  -12.1055   18.5568 C   0  0  0  0  0  0  0  0  0  0  0  0
   -2.0661  -10.6994   18.1916 C   0  0  0  0  0  0  0  0  0  0  0  0
    5.2703   -7.5691   27.1123 C   0  0  0  0  0  0  0  0  0  0  0  0
    1.6204   -9.9887   17.2935 C   0  0  0  0  0  0  0  0  0  0  0  0
    1.8931   -7.9265   16.2047 C   0  0  0  0  0  0  0  0  0  0  0  0
    2.4396   -9.0801   16.7132 C   0  0  0  0  0  0  0  0  0  0  0  0
   -0.2575   -8.6234   16.8582 C   0  0  0  0  0  0  0  0  0  0  0  0
    4.0614   -7.0367   27.0106 N   0  0  0  0  0  0  0  0  0  0  0  0
   -2.9133  -11.6279   18.7578 C   0  0  0  0  0  0  0  0  0  0  0  0
    4.5688  -10.1291   29.5758 C   0  0  0  0  0  0  0  0  0  0  0  0
    2.1008   -9.0410   29.1852 N   0  0  0  0  0  0  0  0  0  0  0  0
    3.4829  -10.5697   30.2091 N   0  0  0  0  0  0  0  0  0  0  0  0
   -0.3363   -6.1172   27.5628 C   0  0  0  0  0  0  0  0  0  0  0  0
    3.0331   -7.4400   27.6362 C   0  0  0  0  0  0  0  0  0  0  0  0
    5.4553   -8.5933   27.9644 C   0  0  0  0  0  0  0  0  0  0  0  0
   -2.3870  -12.8440   19.2512 C   0  0  0  0  0  0  0  0  0  0  0  0
    0.5331   -7.6964   16.2751 C   0  0  0  0  0  0  0  0  0  0  0  0
   -0.6740  -10.8737   18.0482 C   0  0  0  0  0  0  0  0  0  0  0  0
    5.6751  -10.5870   29.7637 O   0  0  0  0  0  0  0  0  0  0  0  0
    1.7612   -5.6483   26.7172 C   0  0  0  0  0  0  0  0  0  0  0  0
    0.2221   -9.8326   17.4055 C   0  0  0  0  0  0  0  0  0  0  0  0
    4.3850   -9.0730   28.6745 C   0  0  0  0  0  0  0  0  0  0  0  0
  1  7  4  0
  1 22  4  0
  2 17  4  0
  2 20  4  0
  2 28  4  0
  3  6  1  0
  3 19  1  0
  4 19  1  0
  4 26  1  0
  5 17  4  0
  5 18  4  0
  6 20  1  0
  6 26  1  0
  7 24  4  0
  8 15  4  0
  8 24  4  0
  9 14  4  0
  9 21  4  0
 10 12  4  0
 10 27  4  0
 11 12  4  0
 11 23  4  0
 13 23  4  0
 13 27  4  0
 14 20  4  0
 15 22  4  0
 16 18  4  0
 16 25  2  0
 16 28  4  0
 21 28  4  0
 24 27  1  0
M  END
$$$$

 Created by Python create_sdf_string function

 28 31  0  0  0  0  0  0  0  0999 V2000
   -1.0054  -13.0622   19.1198 C   0  0  0  0  0  0  0  0  0  0  0  0
    3.1478   -8.5360   28.5161 C   0  0  0  0  0  0  0  0  0  0  0  0
    0.5798   -7.1906   27.9330 C   0  0  0  0  0  0  0  0  0  0  0  0
    0.3978   -5.1561   26.6955 C   0  0  0  0  0  0  0  0  0  0  0  0
    2.3063  -10.0533   30.0125 C   0  0  0  0  0  0  0  0  0  0  0  0
    1.8591   -6.8254   27.4685 N   0  0  0  0  0  0  0  0  0  0  0  0
   -0.2167  -12.1055   18.5568 C   0  0  0  0  0  0  0  0  0  0  0  0
   -2.0661  -10.6994   18.1916 C   0  0  0  0  0  0  0  0  0  0  0  0
    5.2703   -7.5691   27.1123 C   0  0  0  0  0  0  0  0  0  0  0  0
    1.6204   -9.9887   17.2935 C   0  0  0  0  0  0  0  0  0  0  0  0
    1.8931   -7.9265   16.2047 C   0  0  0  0  0  0  0  0  0  0  0  0
    2.4396   -9.0801   16.7132 C   0  0  0  0  0  0  0  0  0  0  0  0
   -0.2575   -8.6234   16.8582 C   0  0  0  0  0  0  0  0  0  0  0  0
    4.0614   -7.0367   27.0106 N   0  0  0  0  0  0  0  0  0  0  0  0
   -2.9133  -11.6279   18.7578 C   0  0  0  0  0  0  0  0  0  0  0  0
    4.5688  -10.1291   29.5758 C   0  0  0  0  0  0  0  0  0  0  0  0
    2.1008   -9.0410   29.1852 N   0  0  0  0  0  0  0  0  0  0  0  0
    3.4829  -10.5697   30.2091 N   0  0  0  0  0  0  0  0  0  0  0  0
   -0.3363   -6.1172   27.5628 C   0  0  0  0  0  0  0  0  0  0  0  0
    3.0331   -7.4400   27.6362 C   0  0  0  0  0  0  0  0  0  0  0  0
    5.4553   -8.5933   27.9644 C   0  0  0  0  0  0  0  0  0  0  0  0
   -2.3870  -12.8440   19.2512 C   0  0  0  0  0  0  0  0  0  0  0  0
    0.5331   -7.6964   16.2751 C   0  0  0  0  0  0  0  0  0  0  0  0
   -0.6740  -10.8737   18.0482 C   0  0  0  0  0  0  0  0  0  0  0  0
    5.6751  -10.5870   29.7637 O   0  0  0  0  0  0  0  0  0  0  0  0
    1.7612   -5.6483   26.7172 C   0  0  0  0  0  0  0  0  0  0  0  0
    0.2221   -9.8326   17.4055 C   0  0  0  0  0  0  0  0  0  0  0  0
    4.3850   -9.0730   28.6745 C   0  0  0  0  0  0  0  0  0  0  0  0
  1  7  4  0
  1 22  4  0
  2 17  4  0
  2 20  4  0
  2 28  4  0
  3  6  1  0
  3 19  1  0
  4 19  1  0
  4 26  1  0
  5 17  4  0
  5 18  4  0
  6 20  1  0
  6 26  1  0
  7 24  4  0
  8 15  4  0
  8 24  4  0
  9 14  4  0
  9 21  4  0
 10 12  4  0
 10 27  4  0
 11 12  4  0
 11 23  4  0
 13 23  4  0
 13 27  4  0
 14 20  4  0
 15 22  4  0
 16 18  4  0
 16 25  2  0
 16 28  4  0
 21 28  4  0
 24 27  1  0
M  END
$$$$

 Created by Python create_sdf_string function

 28 31  0  0  0  0  0  0  0  0999 V2000
   -1.0054  -13.0622   19.1198 C   0  0  0  0  0  0  0  0  0  0  0  0
    3.1478   -8.5360   28.5161 C   0  0  0  0  0  0  0  0  0  0  0  0
    0.5798   -7.1906   27.9330 C   0  0  0  0  0  0  0  0  0  0  0  0
    0.3978   -5.1561   26.6955 C   0  0  0  0  0  0  0  0  0  0  0  0
    2.3063  -10.0533   30.0125 C   0  0  0  0  0  0  0  0  0  0  0  0
    1.8591   -6.8254   27.4685 N   0  0  0  0  0  0  0  0  0  0  0  0
   -0.2167  -12.1055   18.5568 C   0  0  0  0  0  0  0  0  0  0  0  0
   -2.0661  -10.6994   18.1916 C   0  0  0  0  0  0  0  0  0  0  0  0
    5.2703   -7.5691   27.1123 C   0  0  0  0  0  0  0  0  0  0  0  0
    1.6204   -9.9887   17.2935 C   0  0  0  0  0  0  0  0  0  0  0  0
    1.8931   -7.9265   16.2047 C   0  0  0  0  0  0  0  0  0  0  0  0
    2.4396   -9.0801   16.7132 C   0  0  0  0  0  0  0  0  0  0  0  0
   -0.2575   -8.6234   16.8582 C   0  0  0  0  0  0  0  0  0  0  0  0
    4.0614   -7.0367   27.0106 N   0  0  0  0  0  0  0  0  0  0  0  0
   -2.9133  -11.6279   18.7578 C   0  0  0  0  0  0  0  0  0  0  0  0
    4.5688  -10.1291   29.5758 C   0  0  0  0  0  0  0  0  0  0  0  0
    2.1008   -9.0410   29.1852 N   0  0  0  0  0  0  0  0  0  0  0  0
    3.4829  -10.5697   30.2091 N   0  0  0  0  0  0  0  0  0  0  0  0
   -0.3363   -6.1172   27.5628 C   0  0  0  0  0  0  0  0  0  0  0  0
    3.0331   -7.4400   27.6362 C   0  0  0  0  0  0  0  0  0  0  0  0
    5.4553   -8.5933   27.9644 C   0  0  0  0  0  0  0  0  0  0  0  0
   -2.3870  -12.8440   19.2512 C   0  0  0  0  0  0  0  0  0  0  0  0
    0.5331   -7.6964   16.2751 C   0  0  0  0  0  0  0  0  0  0  0  0
   -0.6740  -10.8737   18.0482 C   0  0  0  0  0  0  0  0  0  0  0  0
    5.6751  -10.5870   29.7637 O   0  0  0  0  0  0  0  0  0  0  0  0
    1.7612   -5.6483   26.7172 C   0  0  0  0  0  0  0  0  0  0  0  0
    0.2221   -9.8326   17.4055 C   0  0  0  0  0  0  0  0  0  0  0  0
    4.3850   -9.0730   28.6745 C   0  0  0  0  0  0  0  0  0  0  0  0
  1  7  4  0
  1 22  4  0
  2 17  4  0
  2 20  4  0
  2 28  4  0
  3  6  1  0
  3 19  1  0
  4 19  1  0
  4 26  1  0
  5 17  4  0
  5 18  4  0
  6 20  1  0
  6 26  1  0
  7 24  4  0
  8 15  4  0
  8 24  4  0
  9 14  4  0
  9 21  4  0
 10 12  4  0
 10 27  4  0
 11 12  4  0
 11 23  4  0
 13 23  4  0
 13 27  4  0
 14 20  4  0
 15 22  4  0
 16 18  4  0
 16 25  2  0
 16 28  4  0
 21 28  4  0
 24 27  1  0
M  END
$$$$

 Created by Python create_sdf_string function

 28 31  0  0  0  0  0  0  0  0999 V2000
   -1.0054  -13.0622   19.1198 C   0  0  0  0  0  0  0  0  0  0  0  0
    3.1478   -8.5360   28.5161 C   0  0  0  0  0  0  0  0  0  0  0  0
    0.5798   -7.1906   27.9330 C   0  0  0  0  0  0  0  0  0  0  0  0
    0.3978   -5.1561   26.6955 C   0  0  0  0  0  0  0  0  0  0  0  0
    2.3063  -10.0533   30.0125 C   0  0  0  0  0  0  0  0  0  0  0  0
    1.8591   -6.8254   27.4685 N   0  0  0  0  0  0  0  0  0  0  0  0
   -0.2167  -12.1055   18.5568 C   0  0  0  0  0  0  0  0  0  0  0  0
   -2.0661  -10.6994   18.1916 C   0  0  0  0  0  0  0  0  0  0  0  0
    5.2703   -7.5691   27.1123 C   0  0  0  0  0  0  0  0  0  0  0  0
    1.6204   -9.9887   17.2935 C   0  0  0  0  0  0  0  0  0  0  0  0
    1.8931   -7.9265   16.2047 C   0  0  0  0  0  0  0  0  0  0  0  0
    2.4396   -9.0801   16.7132 C   0  0  0  0  0  0  0  0  0  0  0  0
   -0.2575   -8.6234   16.8582 C   0  0  0  0  0  0  0  0  0  0  0  0
    4.0614   -7.0367   27.0106 N   0  0  0  0  0  0  0  0  0  0  0  0
   -2.9133  -11.6279   18.7578 C   0  0  0  0  0  0  0  0  0  0  0  0
    4.5688  -10.1291   29.5758 C   0  0  0  0  0  0  0  0  0  0  0  0
    2.1008   -9.0410   29.1852 N   0  0  0  0  0  0  0  0  0  0  0  0
    3.4829  -10.5697   30.2091 N   0  0  0  0  0  0  0  0  0  0  0  0
   -0.3363   -6.1172   27.5628 C   0  0  0  0  0  0  0  0  0  0  0  0
    3.0331   -7.4400   27.6362 C   0  0  0  0  0  0  0  0  0  0  0  0
    5.4553   -8.5933   27.9644 C   0  0  0  0  0  0  0  0  0  0  0  0
   -2.3870  -12.8440   19.2512 C   0  0  0  0  0  0  0  0  0  0  0  0
    0.5331   -7.6964   16.2751 C   0  0  0  0  0  0  0  0  0  0  0  0
   -0.6740  -10.8737   18.0482 C   0  0  0  0  0  0  0  0  0  0  0  0
    5.6751  -10.5870   29.7637 O   0  0  0  0  0  0  0  0  0  0  0  0
    1.7612   -5.6483   26.7172 C   0  0  0  0  0  0  0  0  0  0  0  0
    0.2221   -9.8326   17.4055 C   0  0  0  0  0  0  0  0  0  0  0  0
    4.3850   -9.0730   28.6745 C   0  0  0  0  0  0  0  0  0  0  0  0
  1  7  4  0
  1 22  4  0
  2 17  4  0
  2 20  4  0
  2 28  4  0
  3  6  1  0
  3 19  1  0
  4 19  1  0
  4 26  1  0
  5 17  4  0
  5 18  4  0
  6 20  1  0
  6 26  1  0
  7 24  4  0
  8 15  4  0
  8 24  4  0
  9 14  4  0
  9 21  4  0
 10 12  4  0
 10 27  4  0
 11 12  4  0
 11 23  4  0
 13 23  4  0
 13 27  4  0
 14 20  4  0
 15 22  4  0
 16 18  4  0
 16 25  2  0
 16 28  4  0
 21 28  4  0
 24 27  1  0
M  END
$$$$

 Created by Python create_sdf_string function

 28 31  0  0  0  0  0  0  0  0999 V2000
   -1.0054  -13.0622   19.1198 C   0  0  0  0  0  0  0  0  0  0  0  0
    3.1478   -8.5360   28.5161 C   0  0  0  0  0  0  0  0  0  0  0  0
    0.5798   -7.1906   27.9330 C   0  0  0  0  0  0  0  0  0  0  0  0
    0.3978   -5.1561   26.6955 C   0  0  0  0  0  0  0  0  0  0  0  0
    2.3063  -10.0533   30.0125 C   0  0  0  0  0  0  0  0  0  0  0  0
    1.8591   -6.8254   27.4685 N   0  0  0  0  0  0  0  0  0  0  0  0
   -0.2167  -12.1055   18.5568 C   0  0  0  0  0  0  0  0  0  0  0  0
   -2.0661  -10.6994   18.1916 C   0  0  0  0  0  0  0  0  0  0  0  0
    5.2703   -7.5691   27.1123 C   0  0  0  0  0  0  0  0  0  0  0  0
    1.6204   -9.9887   17.2935 C   0  0  0  0  0  0  0  0  0  0  0  0
    1.8931   -7.9265   16.2047 C   0  0  0  0  0  0  0  0  0  0  0  0
    2.4396   -9.0801   16.7132 C   0  0  0  0  0  0  0  0  0  0  0  0
   -0.2575   -8.6234   16.8582 C   0  0  0  0  0  0  0  0  0  0  0  0
    4.0614   -7.0367   27.0106 N   0  0  0  0  0  0  0  0  0  0  0  0
   -2.9133  -11.6279   18.7578 C   0  0  0  0  0  0  0  0  0  0  0  0
    4.5688  -10.1291   29.5758 C   0  0  0  0  0  0  0  0  0  0  0  0
    2.1008   -9.0410   29.1852 N   0  0  0  0  0  0  0  0  0  0  0  0
    3.4829  -10.5697   30.2091 N   0  0  0  0  0  0  0  0  0  0  0  0
   -0.3363   -6.1172   27.5628 C   0  0  0  0  0  0  0  0  0  0  0  0
    3.0331   -7.4400   27.6362 C   0  0  0  0  0  0  0  0  0  0  0  0
    5.4553   -8.5933   27.9644 C   0  0  0  0  0  0  0  0  0  0  0  0
   -2.3870  -12.8440   19.2512 C   0  0  0  0  0  0  0  0  0  0  0  0
    0.5331   -7.6964   16.2751 C   0  0  0  0  0  0  0  0  0  0  0  0
   -0.6740  -10.8737   18.0482 C   0  0  0  0  0  0  0  0  0  0  0  0
    5.6751  -10.5870   29.7637 O   0  0  0  0  0  0  0  0  0  0  0  0
    1.7612   -5.6483   26.7172 C   0  0  0  0  0  0  0  0  0  0  0  0
    0.2221   -9.8326   17.4055 C   0  0  0  0  0  0  0  0  0  0  0  0
    4.3850   -9.0730   28.6745 C   0  0  0  0  0  0  0  0  0  0  0  0
  1  7  4  0
  1 22  4  0
  2 17  4  0
  2 20  4  0
  2 28  4  0
  3  6  1  0
  3 19  1  0
  4 19  1  0
  4 26  1  0
  5 17  4  0
  5 18  4  0
  6 20  1  0
  6 26  1  0
  7 24  4  0
  8 15  4  0
  8 24  4  0
  9 14  4  0
  9 21  4  0
 10 12  4  0
 10 27  4  0
 11 12  4  0
 11 23  4  0
 13 23  4  0
 13 27  4  0
 14 20  4  0
 15 22  4  0
 16 18  4  0
 16 25  2  0
 16 28  4  0
 21 28  4  0
 24 27  1  0
M  END
$$$$

 Created by Python create_sdf_string function

 28 31  0  0  0  0  0  0  0  0999 V2000
   -1.0054  -13.0622   19.1198 C   0  0  0  0  0  0  0  0  0  0  0  0
    3.1478   -8.5360   28.5161 C   0  0  0  0  0  0  0  0  0  0  0  0
    0.5798   -7.1906   27.9330 C   0  0  0  0  0  0  0  0  0  0  0  0
    0.3978   -5.1561   26.6955 C   0  0  0  0  0  0  0  0  0  0  0  0
    2.3063  -10.0533   30.0125 C   0  0  0  0  0  0  0  0  0  0  0  0
    1.8591   -6.8254   27.4685 N   0  0  0  0  0  0  0  0  0  0  0  0
   -0.2167  -12.1055   18.5568 C   0  0  0  0  0  0  0  0  0  0  0  0
   -2.0661  -10.6994   18.1916 C   0  0  0  0  0  0  0  0  0  0  0  0
    5.2703   -7.5691   27.1123 C   0  0  0  0  0  0  0  0  0  0  0  0
    1.6204   -9.9887   17.2935 C   0  0  0  0  0  0  0  0  0  0  0  0
    1.8931   -7.9265   16.2047 C   0  0  0  0  0  0  0  0  0  0  0  0
    2.4396   -9.0801   16.7132 C   0  0  0  0  0  0  0  0  0  0  0  0
   -0.2575   -8.6234   16.8582 C   0  0  0  0  0  0  0  0  0  0  0  0
    4.0614   -7.0367   27.0106 N   0  0  0  0  0  0  0  0  0  0  0  0
   -2.9133  -11.6279   18.7578 C   0  0  0  0  0  0  0  0  0  0  0  0
    4.5688  -10.1291   29.5758 C   0  0  0  0  0  0  0  0  0  0  0  0
    2.1008   -9.0410   29.1852 N   0  0  0  0  0  0  0  0  0  0  0  0
    3.4829  -10.5697   30.2091 N   0  0  0  0  0  0  0  0  0  0  0  0
   -0.3363   -6.1172   27.5628 C   0  0  0  0  0  0  0  0  0  0  0  0
    3.0331   -7.4400   27.6362 C   0  0  0  0  0  0  0  0  0  0  0  0
    5.4553   -8.5933   27.9644 C   0  0  0  0  0  0  0  0  0  0  0  0
   -2.3870  -12.8440   19.2512 C   0  0  0  0  0  0  0  0  0  0  0  0
    0.5331   -7.6964   16.2751 C   0  0  0  0  0  0  0  0  0  0  0  0
   -0.6740  -10.8737   18.0482 C   0  0  0  0  0  0  0  0  0  0  0  0
    5.6751  -10.5870   29.7637 O   0  0  0  0  0  0  0  0  0  0  0  0
    1.7612   -5.6483   26.7172 C   0  0  0  0  0  0  0  0  0  0  0  0
    0.2221   -9.8326   17.4055 C   0  0  0  0  0  0  0  0  0  0  0  0
    4.3850   -9.0730   28.6745 C   0  0  0  0  0  0  0  0  0  0  0  0
  1  7  4  0
  1 22  4  0
  2 17  4  0
  2 20  4  0
  2 28  4  0
  3  6  1  0
  3 19  1  0
  4 19  1  0
  4 26  1  0
  5 17  4  0
  5 18  4  0
  6 20  1  0
  6 26  1  0
  7 24  4  0
  8 15  4  0
  8 24  4  0
  9 14  4  0
  9 21  4  0
 10 12  4  0
 10 27  4  0
 11 12  4  0
 11 23  4  0
 13 23  4  0
 13 27  4  0
 14 20  4  0
 15 22  4  0
 16 18  4  0
 16 25  2  0
 16 28  4  0
 21 28  4  0
 24 27  1  0
M  END
$$$$

 Created by Python create_sdf_string function

 28 31  0  0  0  0  0  0  0  0999 V2000
   -1.0054  -13.0622   19.1198 C   0  0  0  0  0  0  0  0  0  0  0  0
    3.1478   -8.5360   28.5161 C   0  0  0  0  0  0  0  0  0  0  0  0
    0.5798   -7.1906   27.9330 C   0  0  0  0  0  0  0  0  0  0  0  0
    0.3978   -5.1561   26.6955 C   0  0  0  0  0  0  0  0  0  0  0  0
    2.3063  -10.0533   30.0125 C   0  0  0  0  0  0  0  0  0  0  0  0
    1.8591   -6.8254   27.4685 N   0  0  0  0  0  0  0  0  0  0  0  0
   -0.2167  -12.1055   18.5568 C   0  0  0  0  0  0  0  0  0  0  0  0
   -2.0661  -10.6994   18.1916 C   0  0  0  0  0  0  0  0  0  0  0  0
    5.2703   -7.5691   27.1123 C   0  0  0  0  0  0  0  0  0  0  0  0
    1.6204   -9.9887   17.2935 C   0  0  0  0  0  0  0  0  0  0  0  0
    1.8931   -7.9265   16.2047 C   0  0  0  0  0  0  0  0  0  0  0  0
    2.4396   -9.0801   16.7132 C   0  0  0  0  0  0  0  0  0  0  0  0
   -0.2575   -8.6234   16.8582 C   0  0  0  0  0  0  0  0  0  0  0  0
    4.0614   -7.0367   27.0106 N   0  0  0  0  0  0  0  0  0  0  0  0
   -2.9133  -11.6279   18.7578 C   0  0  0  0  0  0  0  0  0  0  0  0
    4.5688  -10.1291   29.5758 C   0  0  0  0  0  0  0  0  0  0  0  0
    2.1008   -9.0410   29.1852 N   0  0  0  0  0  0  0  0  0  0  0  0
    3.4829  -10.5697   30.2091 N   0  0  0  0  0  0  0  0  0  0  0  0
   -0.3363   -6.1172   27.5628 C   0  0  0  0  0  0  0  0  0  0  0  0
    3.0331   -7.4400   27.6362 C   0  0  0  0  0  0  0  0  0  0  0  0
    5.4553   -8.5933   27.9644 C   0  0  0  0  0  0  0  0  0  0  0  0
   -2.3870  -12.8440   19.2512 C   0  0  0  0  0  0  0  0  0  0  0  0
    0.5331   -7.6964   16.2751 C   0  0  0  0  0  0  0  0  0  0  0  0
   -0.6740  -10.8737   18.0482 C   0  0  0  0  0  0  0  0  0  0  0  0
    5.6751  -10.5870   29.7637 O   0  0  0  0  0  0  0  0  0  0  0  0
    1.7612   -5.6483   26.7172 C   0  0  0  0  0  0  0  0  0  0  0  0
    0.2221   -9.8326   17.4055 C   0  0  0  0  0  0  0  0  0  0  0  0
    4.3850   -9.0730   28.6745 C   0  0  0  0  0  0  0  0  0  0  0  0
  1  7  4  0
  1 22  4  0
  2 17  4  0
  2 20  4  0
  2 28  4  0
  3  6  1  0
  3 19  1  0
  4 19  1  0
  4 26  1  0
  5 17  4  0
  5 18  4  0
  6 20  1  0
  6 26  1  0
  7 24  4  0
  8 15  4  0
  8 24  4  0
  9 14  4  0
  9 21  4  0
 10 12  4  0
 10 27  4  0
 11 12  4  0
 11 23  4  0
 13 23  4  0
 13 27  4  0
 14 20  4  0
 15 22  4  0
 16 18  4  0
 16 25  2  0
 16 28  4  0
 21 28  4  0
 24 27  1  0
M  END
$$$$

 Created by Python create_sdf_string function

 28 31  0  0  0  0  0  0  0  0999 V2000
   -1.0054  -13.0622   19.1198 C   0  0  0  0  0  0  0  0  0  0  0  0
    3.1478   -8.5360   28.5161 C   0  0  0  0  0  0  0  0  0  0  0  0
    0.5798   -7.1906   27.9330 C   0  0  0  0  0  0  0  0  0  0  0  0
    0.3978   -5.1561   26.6955 C   0  0  0  0  0  0  0  0  0  0  0  0
    2.3063  -10.0533   30.0125 C   0  0  0  0  0  0  0  0  0  0  0  0
    1.8591   -6.8254   27.4685 N   0  0  0  0  0  0  0  0  0  0  0  0
   -0.2167  -12.1055   18.5568 C   0  0  0  0  0  0  0  0  0  0  0  0
   -2.0661  -10.6994   18.1916 C   0  0  0  0  0  0  0  0  0  0  0  0
    5.2703   -7.5691   27.1123 C   0  0  0  0  0  0  0  0  0  0  0  0
    1.6204   -9.9887   17.2935 C   0  0  0  0  0  0  0  0  0  0  0  0
    1.8931   -7.9265   16.2047 C   0  0  0  0  0  0  0  0  0  0  0  0
    2.4396   -9.0801   16.7132 C   0  0  0  0  0  0  0  0  0  0  0  0
   -0.2575   -8.6234   16.8582 C   0  0  0  0  0  0  0  0  0  0  0  0
    4.0614   -7.0367   27.0106 N   0  0  0  0  0  0  0  0  0  0  0  0
   -2.9133  -11.6279   18.7578 C   0  0  0  0  0  0  0  0  0  0  0  0
    4.5688  -10.1291   29.5758 C   0  0  0  0  0  0  0  0  0  0  0  0
    2.1008   -9.0410   29.1852 N   0  0  0  0  0  0  0  0  0  0  0  0
    3.4829  -10.5697   30.2091 N   0  0  0  0  0  0  0  0  0  0  0  0
   -0.3363   -6.1172   27.5628 C   0  0  0  0  0  0  0  0  0  0  0  0
    3.0331   -7.4400   27.6362 C   0  0  0  0  0  0  0  0  0  0  0  0
    5.4553   -8.5933   27.9644 C   0  0  0  0  0  0  0  0  0  0  0  0
   -2.3870  -12.8440   19.2512 C   0  0  0  0  0  0  0  0  0  0  0  0
    0.5331   -7.6964   16.2751 C   0  0  0  0  0  0  0  0  0  0  0  0
   -0.6740  -10.8737   18.0482 C   0  0  0  0  0  0  0  0  0  0  0  0
    5.6751  -10.5870   29.7637 O   0  0  0  0  0  0  0  0  0  0  0  0
    1.7612   -5.6483   26.7172 C   0  0  0  0  0  0  0  0  0  0  0  0
    0.2221   -9.8326   17.4055 C   0  0  0  0  0  0  0  0  0  0  0  0
    4.3850   -9.0730   28.6745 C   0  0  0  0  0  0  0  0  0  0  0  0
  1  7  4  0
  1 22  4  0
  2 17  4  0
  2 20  4  0
  2 28  4  0
  3  6  1  0
  3 19  1  0
  4 19  1  0
  4 26  1  0
  5 17  4  0
  5 18  4  0
  6 20  1  0
  6 26  1  0
  7 24  4  0
  8 15  4  0
  8 24  4  0
  9 14  4  0
  9 21  4  0
 10 12  4  0
 10 27  4  0
 11 12  4  0
 11 23  4  0
 13 23  4  0
 13 27  4  0
 14 20  4  0
 15 22  4  0
 16 18  4  0
 16 25  2  0
 16 28  4  0
 21 28  4  0
 24 27  1  0
M  END
$$$$

 Created by Python create_sdf_string function

 28 31  0  0  0  0  0  0  0  0999 V2000
   -1.0054  -13.0622   19.1198 C   0  0  0  0  0  0  0  0  0  0  0  0
    3.1478   -8.5360   28.5161 C   0  0  0  0  0  0  0  0  0  0  0  0
    0.5798   -7.1906   27.9330 C   0  0  0  0  0  0  0  0  0  0  0  0
    0.3978   -5.1561   26.6955 C   0  0  0  0  0  0  0  0  0  0  0  0
    2.3063  -10.0533   30.0125 C   0  0  0  0  0  0  0  0  0  0  0  0
    1.8591   -6.8254   27.4685 N   0  0  0  0  0  0  0  0  0  0  0  0
   -0.2167  -12.1055   18.5568 C   0  0  0  0  0  0  0  0  0  0  0  0
   -2.0661  -10.6994   18.1916 C   0  0  0  0  0  0  0  0  0  0  0  0
    5.2703   -7.5691   27.1123 C   0  0  0  0  0  0  0  0  0  0  0  0
    1.6204   -9.9887   17.2935 C   0  0  0  0  0  0  0  0  0  0  0  0
    1.8931   -7.9265   16.2047 C   0  0  0  0  0  0  0  0  0  0  0  0
    2.4396   -9.0801   16.7132 C   0  0  0  0  0  0  0  0  0  0  0  0
   -0.2575   -8.6234   16.8582 C   0  0  0  0  0  0  0  0  0  0  0  0
    4.0614   -7.0367   27.0106 N   0  0  0  0  0  0  0  0  0  0  0  0
   -2.9133  -11.6279   18.7578 C   0  0  0  0  0  0  0  0  0  0  0  0
    4.5688  -10.1291   29.5758 C   0  0  0  0  0  0  0  0  0  0  0  0
    2.1008   -9.0410   29.1852 N   0  0  0  0  0  0  0  0  0  0  0  0
    3.4829  -10.5697   30.2091 N   0  0  0  0  0  0  0  0  0  0  0  0
   -0.3363   -6.1172   27.5628 C   0  0  0  0  0  0  0  0  0  0  0  0
    3.0331   -7.4400   27.6362 C   0  0  0  0  0  0  0  0  0  0  0  0
    5.4553   -8.5933   27.9644 C   0  0  0  0  0  0  0  0  0  0  0  0
   -2.3870  -12.8440   19.2512 C   0  0  0  0  0  0  0  0  0  0  0  0
    0.5331   -7.6964   16.2751 C   0  0  0  0  0  0  0  0  0  0  0  0
   -0.6740  -10.8737   18.0482 C   0  0  0  0  0  0  0  0  0  0  0  0
    5.6751  -10.5870   29.7637 O   0  0  0  0  0  0  0  0  0  0  0  0
    1.7612   -5.6483   26.7172 C   0  0  0  0  0  0  0  0  0  0  0  0
    0.2221   -9.8326   17.4055 C   0  0  0  0  0  0  0  0  0  0  0  0
    4.3850   -9.0730   28.6745 C   0  0  0  0  0  0  0  0  0  0  0  0
  1  7  4  0
  1 22  4  0
  2 17  4  0
  2 20  4  0
  2 28  4  0
  3  6  1  0
  3 19  1  0
  4 19  1  0
  4 26  1  0
  5 17  4  0
  5 18  4  0
  6 20  1  0
  6 26  1  0
  7 24  4  0
  8 15  4  0
  8 24  4  0
  9 14  4  0
  9 21  4  0
 10 12  4  0
 10 27  4  0
 11 12  4  0
 11 23  4  0
 13 23  4  0
 13 27  4  0
 14 20  4  0
 15 22  4  0
 16 18  4  0
 16 25  2  0
 16 28  4  0
 21 28  4  0
 24 27  1  0
M  END
$$$$

 Created by Python create_sdf_string function

 28 31  0  0  0  0  0  0  0  0999 V2000
   -1.0054  -13.0622   19.1198 C   0  0  0  0  0  0  0  0  0  0  0  0
    3.1478   -8.5360   28.5161 C   0  0  0  0  0  0  0  0  0  0  0  0
    0.5798   -7.1906   27.9330 C   0  0  0  0  0  0  0  0  0  0  0  0
    0.3978   -5.1561   26.6955 C   0  0  0  0  0  0  0  0  0  0  0  0
    2.3063  -10.0533   30.0125 C   0  0  0  0  0  0  0  0  0  0  0  0
    1.8591   -6.8254   27.4685 N   0  0  0  0  0  0  0  0  0  0  0  0
   -0.2167  -12.1055   18.5568 C   0  0  0  0  0  0  0  0  0  0  0  0
   -2.0661  -10.6994   18.1916 C   0  0  0  0  0  0  0  0  0  0  0  0
    5.2703   -7.5691   27.1123 C   0  0  0  0  0  0  0  0  0  0  0  0
    1.6204   -9.9887   17.2935 C   0  0  0  0  0  0  0  0  0  0  0  0
    1.8931   -7.9265   16.2047 C   0  0  0  0  0  0  0  0  0  0  0  0
    2.4396   -9.0801   16.7132 C   0  0  0  0  0  0  0  0  0  0  0  0
   -0.2575   -8.6234   16.8582 C   0  0  0  0  0  0  0  0  0  0  0  0
    4.0614   -7.0367   27.0106 N   0  0  0  0  0  0  0  0  0  0  0  0
   -2.9133  -11.6279   18.7578 C   0  0  0  0  0  0  0  0  0  0  0  0
    4.5688  -10.1291   29.5758 C   0  0  0  0  0  0  0  0  0  0  0  0
    2.1008   -9.0410   29.1852 N   0  0  0  0  0  0  0  0  0  0  0  0
    3.4829  -10.5697   30.2091 N   0  0  0  0  0  0  0  0  0  0  0  0
   -0.3363   -6.1172   27.5628 C   0  0  0  0  0  0  0  0  0  0  0  0
    3.0331   -7.4400   27.6362 C   0  0  0  0  0  0  0  0  0  0  0  0
    5.4553   -8.5933   27.9644 C   0  0  0  0  0  0  0  0  0  0  0  0
   -2.3870  -12.8440   19.2512 C   0  0  0  0  0  0  0  0  0  0  0  0
    0.5331   -7.6964   16.2751 C   0  0  0  0  0  0  0  0  0  0  0  0
   -0.6740  -10.8737   18.0482 C   0  0  0  0  0  0  0  0  0  0  0  0
    5.6751  -10.5870   29.7637 O   0  0  0  0  0  0  0  0  0  0  0  0
    1.7612   -5.6483   26.7172 C   0  0  0  0  0  0  0  0  0  0  0  0
    0.2221   -9.8326   17.4055 C   0  0  0  0  0  0  0  0  0  0  0  0
    4.3850   -9.0730   28.6745 C   0  0  0  0  0  0  0  0  0  0  0  0
  1  7  4  0
  1 22  4  0
  2 17  4  0
  2 20  4  0
  2 28  4  0
  3  6  1  0
  3 19  1  0
  4 19  1  0
  4 26  1  0
  5 17  4  0
  5 18  4  0
  6 20  1  0
  6 26  1  0
  7 24  4  0
  8 15  4  0
  8 24  4  0
  9 14  4  0
  9 21  4  0
 10 12  4  0
 10 27  4  0
 11 12  4  0
 11 23  4  0
 13 23  4  0
 13 27  4  0
 14 20  4  0
 15 22  4  0
 16 18  4  0
 16 25  2  0
 16 28  4  0
 21 28  4  0
 24 27  1  0
M  END
$$$$

 Created by Python create_sdf_string function

 28 31  0  0  0  0  0  0  0  0999 V2000
   -1.0054  -13.0622   19.1198 C   0  0  0  0  0  0  0  0  0  0  0  0
    3.1478   -8.5360   28.5161 C   0  0  0  0  0  0  0  0  0  0  0  0
    0.5798   -7.1906   27.9330 C   0  0  0  0  0  0  0  0  0  0  0  0
    0.3978   -5.1561   26.6955 C   0  0  0  0  0  0  0  0  0  0  0  0
    2.3063  -10.0533   30.0125 C   0  0  0  0  0  0  0  0  0  0  0  0
    1.8591   -6.8254   27.4685 N   0  0  0  0  0  0  0  0  0  0  0  0
   -0.2167  -12.1055   18.5568 C   0  0  0  0  0  0  0  0  0  0  0  0
   -2.0661  -10.6994   18.1916 C   0  0  0  0  0  0  0  0  0  0  0  0
    5.2703   -7.5691   27.1123 C   0  0  0  0  0  0  0  0  0  0  0  0
    1.6204   -9.9887   17.2935 C   0  0  0  0  0  0  0  0  0  0  0  0
    1.8931   -7.9265   16.2047 C   0  0  0  0  0  0  0  0  0  0  0  0
    2.4396   -9.0801   16.7132 C   0  0  0  0  0  0  0  0  0  0  0  0
   -0.2575   -8.6234   16.8582 C   0  0  0  0  0  0  0  0  0  0  0  0
    4.0614   -7.0367   27.0106 N   0  0  0  0  0  0  0  0  0  0  0  0
   -2.9133  -11.6279   18.7578 C   0  0  0  0  0  0  0  0  0  0  0  0
    4.5688  -10.1291   29.5758 C   0  0  0  0  0  0  0  0  0  0  0  0
    2.1008   -9.0410   29.1852 N   0  0  0  0  0  0  0  0  0  0  0  0
    3.4829  -10.5697   30.2091 N   0  0  0  0  0  0  0  0  0  0  0  0
   -0.3363   -6.1172   27.5628 C   0  0  0  0  0  0  0  0  0  0  0  0
    3.0331   -7.4400   27.6362 C   0  0  0  0  0  0  0  0  0  0  0  0
    5.4553   -8.5933   27.9644 C   0  0  0  0  0  0  0  0  0  0  0  0
   -2.3870  -12.8440   19.2512 C   0  0  0  0  0  0  0  0  0  0  0  0
    0.5331   -7.6964   16.2751 C   0  0  0  0  0  0  0  0  0  0  0  0
   -0.6740  -10.8737   18.0482 C   0  0  0  0  0  0  0  0  0  0  0  0
    5.6751  -10.5870   29.7637 O   0  0  0  0  0  0  0  0  0  0  0  0
    1.7612   -5.6483   26.7172 C   0  0  0  0  0  0  0  0  0  0  0  0
    0.2221   -9.8326   17.4055 C   0  0  0  0  0  0  0  0  0  0  0  0
    4.3850   -9.0730   28.6745 C   0  0  0  0  0  0  0  0  0  0  0  0
  1  7  4  0
  1 22  4  0
  2 17  4  0
  2 20  4  0
  2 28  4  0
  3  6  1  0
  3 19  1  0
  4 19  1  0
  4 26  1  0
  5 17  4  0
  5 18  4  0
  6 20  1  0
  6 26  1  0
  7 24  4  0
  8 15  4  0
  8 24  4  0
  9 14  4  0
  9 21  4  0
 10 12  4  0
 10 27  4  0
 11 12  4  0
 11 23  4  0
 13 23  4  0
 13 27  4  0
 14 20  4  0
 15 22  4  0
 16 18  4  0
 16 25  2  0
 16 28  4  0
 21 28  4  0
 24 27  1  0
M  END
$$$$

 Created by Python create_sdf_string function

 28 31  0  0  0  0  0  0  0  0999 V2000
   -1.0054  -13.0622   19.1198 C   0  0  0  0  0  0  0  0  0  0  0  0
    3.1478   -8.5360   28.5161 C   0  0  0  0  0  0  0  0  0  0  0  0
    0.5798   -7.1906   27.9330 C   0  0  0  0  0  0  0  0  0  0  0  0
    0.3978   -5.1561   26.6955 C   0  0  0  0  0  0  0  0  0  0  0  0
    2.3063  -10.0533   30.0125 C   0  0  0  0  0  0  0  0  0  0  0  0
    1.8591   -6.8254   27.4685 N   0  0  0  0  0  0  0  0  0  0  0  0
   -0.2167  -12.1055   18.5568 C   0  0  0  0  0  0  0  0  0  0  0  0
   -2.0661  -10.6994   18.1916 C   0  0  0  0  0  0  0  0  0  0  0  0
    5.2703   -7.5691   27.1123 C   0  0  0  0  0  0  0  0  0  0  0  0
    1.6204   -9.9887   17.2935 C   0  0  0  0  0  0  0  0  0  0  0  0
    1.8931   -7.9265   16.2047 C   0  0  0  0  0  0  0  0  0  0  0  0
    2.4396   -9.0801   16.7132 C   0  0  0  0  0  0  0  0  0  0  0  0
   -0.2575   -8.6234   16.8582 C   0  0  0  0  0  0  0  0  0  0  0  0
    4.0614   -7.0367   27.0106 N   0  0  0  0  0  0  0  0  0  0  0  0
   -2.9133  -11.6279   18.7578 C   0  0  0  0  0  0  0  0  0  0  0  0
    4.5688  -10.1291   29.5758 C   0  0  0  0  0  0  0  0  0  0  0  0
    2.1008   -9.0410   29.1852 N   0  0  0  0  0  0  0  0  0  0  0  0
    3.4829  -10.5697   30.2091 N   0  0  0  0  0  0  0  0  0  0  0  0
   -0.3363   -6.1172   27.5628 C   0  0  0  0  0  0  0  0  0  0  0  0
    3.0331   -7.4400   27.6362 C   0  0  0  0  0  0  0  0  0  0  0  0
    5.4553   -8.5933   27.9644 C   0  0  0  0  0  0  0  0  0  0  0  0
   -2.3870  -12.8440   19.2512 C   0  0  0  0  0  0  0  0  0  0  0  0
    0.5331   -7.6964   16.2751 C   0  0  0  0  0  0  0  0  0  0  0  0
   -0.6740  -10.8737   18.0482 C   0  0  0  0  0  0  0  0  0  0  0  0
    5.6751  -10.5870   29.7637 O   0  0  0  0  0  0  0  0  0  0  0  0
    1.7612   -5.6483   26.7172 C   0  0  0  0  0  0  0  0  0  0  0  0
    0.2221   -9.8326   17.4055 C   0  0  0  0  0  0  0  0  0  0  0  0
    4.3850   -9.0730   28.6745 C   0  0  0  0  0  0  0  0  0  0  0  0
  1  7  4  0
  1 22  4  0
  2 17  4  0
  2 20  4  0
  2 28  4  0
  3  6  1  0
  3 19  1  0
  4 19  1  0
  4 26  1  0
  5 17  4  0
  5 18  4  0
  6 20  1  0
  6 26  1  0
  7 24  4  0
  8 15  4  0
  8 24  4  0
  9 14  4  0
  9 21  4  0
 10 12  4  0
 10 27  4  0
 11 12  4  0
 11 23  4  0
 13 23  4  0
 13 27  4  0
 14 20  4  0
 15 22  4  0
 16 18  4  0
 16 25  2  0
 16 28  4  0
 21 28  4  0
 24 27  1  0
M  END
$$$$

 Created by Python create_sdf_string function

 28 31  0  0  0  0  0  0  0  0999 V2000
   -1.0054  -13.0622   19.1198 C   0  0  0  0  0  0  0  0  0  0  0  0
    3.1478   -8.5360   28.5161 C   0  0  0  0  0  0  0  0  0  0  0  0
    0.5798   -7.1906   27.9330 C   0  0  0  0  0  0  0  0  0  0  0  0
    0.3978   -5.1561   26.6955 C   0  0  0  0  0  0  0  0  0  0  0  0
    2.3063  -10.0533   30.0125 C   0  0  0  0  0  0  0  0  0  0  0  0
    1.8591   -6.8254   27.4685 N   0  0  0  0  0  0  0  0  0  0  0  0
   -0.2167  -12.1055   18.5568 C   0  0  0  0  0  0  0  0  0  0  0  0
   -2.0661  -10.6994   18.1916 C   0  0  0  0  0  0  0  0  0  0  0  0
    5.2703   -7.5691   27.1123 C   0  0  0  0  0  0  0  0  0  0  0  0
    1.6204   -9.9887   17.2935 C   0  0  0  0  0  0  0  0  0  0  0  0
    1.8931   -7.9265   16.2047 C   0  0  0  0  0  0  0  0  0  0  0  0
    2.4396   -9.0801   16.7132 C   0  0  0  0  0  0  0  0  0  0  0  0
   -0.2575   -8.6234   16.8582 C   0  0  0  0  0  0  0  0  0  0  0  0
    4.0614   -7.0367   27.0106 N   0  0  0  0  0  0  0  0  0  0  0  0
   -2.9133  -11.6279   18.7578 C   0  0  0  0  0  0  0  0  0  0  0  0
    4.5688  -10.1291   29.5758 C   0  0  0  0  0  0  0  0  0  0  0  0
    2.1008   -9.0410   29.1852 N   0  0  0  0  0  0  0  0  0  0  0  0
    3.4829  -10.5697   30.2091 N   0  0  0  0  0  0  0  0  0  0  0  0
   -0.3363   -6.1172   27.5628 C   0  0  0  0  0  0  0  0  0  0  0  0
    3.0331   -7.4400   27.6362 C   0  0  0  0  0  0  0  0  0  0  0  0
    5.4553   -8.5933   27.9644 C   0  0  0  0  0  0  0  0  0  0  0  0
   -2.3870  -12.8440   19.2512 C   0  0  0  0  0  0  0  0  0  0  0  0
    0.5331   -7.6964   16.2751 C   0  0  0  0  0  0  0  0  0  0  0  0
   -0.6740  -10.8737   18.0482 C   0  0  0  0  0  0  0  0  0  0  0  0
    5.6751  -10.5870   29.7637 O   0  0  0  0  0  0  0  0  0  0  0  0
    1.7612   -5.6483   26.7172 C   0  0  0  0  0  0  0  0  0  0  0  0
    0.2221   -9.8326   17.4055 C   0  0  0  0  0  0  0  0  0  0  0  0
    4.3850   -9.0730   28.6745 C   0  0  0  0  0  0  0  0  0  0  0  0
  1  7  4  0
  1 22  4  0
  2 17  4  0
  2 20  4  0
  2 28  4  0
  3  6  1  0
  3 19  1  0
  4 19  1  0
  4 26  1  0
  5 17  4  0
  5 18  4  0
  6 20  1  0
  6 26  1  0
  7 24  4  0
  8 15  4  0
  8 24  4  0
  9 14  4  0
  9 21  4  0
 10 12  4  0
 10 27  4  0
 11 12  4  0
 11 23  4  0
 13 23  4  0
 13 27  4  0
 14 20  4  0
 15 22  4  0
 16 18  4  0
 16 25  2  0
 16 28  4  0
 21 28  4  0
 24 27  1  0
M  END
$$$$

 Created by Python create_sdf_string function

 28 31  0  0  0  0  0  0  0  0999 V2000
   -1.0054  -13.0622   19.1198 C   0  0  0  0  0  0  0  0  0  0  0  0
    3.1478   -8.5360   28.5161 C   0  0  0  0  0  0  0  0  0  0  0  0
    0.5798   -7.1906   27.9330 C   0  0  0  0  0  0  0  0  0  0  0  0
    0.3978   -5.1561   26.6955 C   0  0  0  0  0  0  0  0  0  0  0  0
    2.3063  -10.0533   30.0125 C   0  0  0  0  0  0  0  0  0  0  0  0
    1.8591   -6.8254   27.4685 N   0  0  0  0  0  0  0  0  0  0  0  0
   -0.2167  -12.1055   18.5568 C   0  0  0  0  0  0  0  0  0  0  0  0
   -2.0661  -10.6994   18.1916 C   0  0  0  0  0  0  0  0  0  0  0  0
    5.2703   -7.5691   27.1123 C   0  0  0  0  0  0  0  0  0  0  0  0
    1.6204   -9.9887   17.2935 C   0  0  0  0  0  0  0  0  0  0  0  0
    1.8931   -7.9265   16.2047 C   0  0  0  0  0  0  0  0  0  0  0  0
    2.4396   -9.0801   16.7132 C   0  0  0  0  0  0  0  0  0  0  0  0
   -0.2575   -8.6234   16.8582 C   0  0  0  0  0  0  0  0  0  0  0  0
    4.0614   -7.0367   27.0106 N   0  0  0  0  0  0  0  0  0  0  0  0
   -2.9133  -11.6279   18.7578 C   0  0  0  0  0  0  0  0  0  0  0  0
    4.5688  -10.1291   29.5758 C   0  0  0  0  0  0  0  0  0  0  0  0
    2.1008   -9.0410   29.1852 N   0  0  0  0  0  0  0  0  0  0  0  0
    3.4829  -10.5697   30.2091 N   0  0  0  0  0  0  0  0  0  0  0  0
   -0.3363   -6.1172   27.5628 C   0  0  0  0  0  0  0  0  0  0  0  0
    3.0331   -7.4400   27.6362 C   0  0  0  0  0  0  0  0  0  0  0  0
    5.4553   -8.5933   27.9644 C   0  0  0  0  0  0  0  0  0  0  0  0
   -2.3870  -12.8440   19.2512 C   0  0  0  0  0  0  0  0  0  0  0  0
    0.5331   -7.6964   16.2751 C   0  0  0  0  0  0  0  0  0  0  0  0
   -0.6740  -10.8737   18.0482 C   0  0  0  0  0  0  0  0  0  0  0  0
    5.6751  -10.5870   29.7637 O   0  0  0  0  0  0  0  0  0  0  0  0
    1.7612   -5.6483   26.7172 C   0  0  0  0  0  0  0  0  0  0  0  0
    0.2221   -9.8326   17.4055 C   0  0  0  0  0  0  0  0  0  0  0  0
    4.3850   -9.0730   28.6745 C   0  0  0  0  0  0  0  0  0  0  0  0
  1  7  4  0
  1 22  4  0
  2 17  4  0
  2 20  4  0
  2 28  4  0
  3  6  1  0
  3 19  1  0
  4 19  1  0
  4 26  1  0
  5 17  4  0
  5 18  4  0
  6 20  1  0
  6 26  1  0
  7 24  4  0
  8 15  4  0
  8 24  4  0
  9 14  4  0
  9 21  4  0
 10 12  4  0
 10 27  4  0
 11 12  4  0
 11 23  4  0
 13 23  4  0
 13 27  4  0
 14 20  4  0
 15 22  4  0
 16 18  4  0
 16 25  2  0
 16 28  4  0
 21 28  4  0
 24 27  1  0
M  END
$$$$

 Created by Python create_sdf_string function

 28 31  0  0  0  0  0  0  0  0999 V2000
   -1.0054  -13.0622   19.1198 C   0  0  0  0  0  0  0  0  0  0  0  0
    3.1478   -8.5360   28.5161 C   0  0  0  0  0  0  0  0  0  0  0  0
    0.5798   -7.1906   27.9330 C   0  0  0  0  0  0  0  0  0  0  0  0
    0.3978   -5.1561   26.6955 C   0  0  0  0  0  0  0  0  0  0  0  0
    2.3063  -10.0533   30.0125 C   0  0  0  0  0  0  0  0  0  0  0  0
    1.8591   -6.8254   27.4685 N   0  0  0  0  0  0  0  0  0  0  0  0
   -0.2167  -12.1055   18.5568 C   0  0  0  0  0  0  0  0  0  0  0  0
   -2.0661  -10.6994   18.1916 C   0  0  0  0  0  0  0  0  0  0  0  0
    5.2703   -7.5691   27.1123 C   0  0  0  0  0  0  0  0  0  0  0  0
    1.6204   -9.9887   17.2935 C   0  0  0  0  0  0  0  0  0  0  0  0
    1.8931   -7.9265   16.2047 C   0  0  0  0  0  0  0  0  0  0  0  0
    2.4396   -9.0801   16.7132 C   0  0  0  0  0  0  0  0  0  0  0  0
   -0.2575   -8.6234   16.8582 C   0  0  0  0  0  0  0  0  0  0  0  0
    4.0614   -7.0367   27.0106 N   0  0  0  0  0  0  0  0  0  0  0  0
   -2.9133  -11.6279   18.7578 C   0  0  0  0  0  0  0  0  0  0  0  0
    4.5688  -10.1291   29.5758 C   0  0  0  0  0  0  0  0  0  0  0  0
    2.1008   -9.0410   29.1852 N   0  0  0  0  0  0  0  0  0  0  0  0
    3.4829  -10.5697   30.2091 N   0  0  0  0  0  0  0  0  0  0  0  0
   -0.3363   -6.1172   27.5628 C   0  0  0  0  0  0  0  0  0  0  0  0
    3.0331   -7.4400   27.6362 C   0  0  0  0  0  0  0  0  0  0  0  0
    5.4553   -8.5933   27.9644 C   0  0  0  0  0  0  0  0  0  0  0  0
   -2.3870  -12.8440   19.2512 C   0  0  0  0  0  0  0  0  0  0  0  0
    0.5331   -7.6964   16.2751 C   0  0  0  0  0  0  0  0  0  0  0  0
   -0.6740  -10.8737   18.0482 C   0  0  0  0  0  0  0  0  0  0  0  0
    5.6751  -10.5870   29.7637 O   0  0  0  0  0  0  0  0  0  0  0  0
    1.7612   -5.6483   26.7172 C   0  0  0  0  0  0  0  0  0  0  0  0
    0.2221   -9.8326   17.4055 C   0  0  0  0  0  0  0  0  0  0  0  0
    4.3850   -9.0730   28.6745 C   0  0  0  0  0  0  0  0  0  0  0  0
  1  7  4  0
  1 22  4  0
  2 17  4  0
  2 20  4  0
  2 28  4  0
  3  6  1  0
  3 19  1  0
  4 19  1  0
  4 26  1  0
  5 17  4  0
  5 18  4  0
  6 20  1  0
  6 26  1  0
  7 24  4  0
  8 15  4  0
  8 24  4  0
  9 14  4  0
  9 21  4  0
 10 12  4  0
 10 27  4  0
 11 12  4  0
 11 23  4  0
 13 23  4  0
 13 27  4  0
 14 20  4  0
 15 22  4  0
 16 18  4  0
 16 25  2  0
 16 28  4  0
 21 28  4  0
 24 27  1  0
M  END
$$$$

 Created by Python create_sdf_string function

 28 31  0  0  0  0  0  0  0  0999 V2000
   -1.0054  -13.0622   19.1198 C   0  0  0  0  0  0  0  0  0  0  0  0
    3.1478   -8.5360   28.5161 C   0  0  0  0  0  0  0  0  0  0  0  0
    0.5798   -7.1906   27.9330 C   0  0  0  0  0  0  0  0  0  0  0  0
    0.3978   -5.1561   26.6955 C   0  0  0  0  0  0  0  0  0  0  0  0
    2.3063  -10.0533   30.0125 C   0  0  0  0  0  0  0  0  0  0  0  0
    1.8591   -6.8254   27.4685 N   0  0  0  0  0  0  0  0  0  0  0  0
   -0.2167  -12.1055   18.5568 C   0  0  0  0  0  0  0  0  0  0  0  0
   -2.0661  -10.6994   18.1916 C   0  0  0  0  0  0  0  0  0  0  0  0
    5.2703   -7.5691   27.1123 C   0  0  0  0  0  0  0  0  0  0  0  0
    1.6204   -9.9887   17.2935 C   0  0  0  0  0  0  0  0  0  0  0  0
    1.8931   -7.9265   16.2047 C   0  0  0  0  0  0  0  0  0  0  0  0
    2.4396   -9.0801   16.7132 C   0  0  0  0  0  0  0  0  0  0  0  0
   -0.2575   -8.6234   16.8582 C   0  0  0  0  0  0  0  0  0  0  0  0
    4.0614   -7.0367   27.0106 N   0  0  0  0  0  0  0  0  0  0  0  0
   -2.9133  -11.6279   18.7578 C   0  0  0  0  0  0  0  0  0  0  0  0
    4.5688  -10.1291   29.5758 C   0  0  0  0  0  0  0  0  0  0  0  0
    2.1008   -9.0410   29.1852 N   0  0  0  0  0  0  0  0  0  0  0  0
    3.4829  -10.5697   30.2091 N   0  0  0  0  0  0  0  0  0  0  0  0
   -0.3363   -6.1172   27.5628 C   0  0  0  0  0  0  0  0  0  0  0  0
    3.0331   -7.4400   27.6362 C   0  0  0  0  0  0  0  0  0  0  0  0
    5.4553   -8.5933   27.9644 C   0  0  0  0  0  0  0  0  0  0  0  0
   -2.3870  -12.8440   19.2512 C   0  0  0  0  0  0  0  0  0  0  0  0
    0.5331   -7.6964   16.2751 C   0  0  0  0  0  0  0  0  0  0  0  0
   -0.6740  -10.8737   18.0482 C   0  0  0  0  0  0  0  0  0  0  0  0
    5.6751  -10.5870   29.7637 O   0  0  0  0  0  0  0  0  0  0  0  0
    1.7612   -5.6483   26.7172 C   0  0  0  0  0  0  0  0  0  0  0  0
    0.2221   -9.8326   17.4055 C   0  0  0  0  0  0  0  0  0  0  0  0
    4.3850   -9.0730   28.6745 C   0  0  0  0  0  0  0  0  0  0  0  0
  1  7  4  0
  1 22  4  0
  2 17  4  0
  2 20  4  0
  2 28  4  0
  3  6  1  0
  3 19  1  0
  4 19  1  0
  4 26  1  0
  5 17  4  0
  5 18  4  0
  6 20  1  0
  6 26  1  0
  7 24  4  0
  8 15  4  0
  8 24  4  0
  9 14  4  0
  9 21  4  0
 10 12  4  0
 10 27  4  0
 11 12  4  0
 11 23  4  0
 13 23  4  0
 13 27  4  0
 14 20  4  0
 15 22  4  0
 16 18  4  0
 16 25  2  0
 16 28  4  0
 21 28  4  0
 24 27  1  0
M  END
$$$$

 Created by Python create_sdf_string function

 28 31  0  0  0  0  0  0  0  0999 V2000
   -1.0054  -13.0622   19.1198 C   0  0  0  0  0  0  0  0  0  0  0  0
    3.1478   -8.5360   28.5161 C   0  0  0  0  0  0  0  0  0  0  0  0
    0.5798   -7.1906   27.9330 C   0  0  0  0  0  0  0  0  0  0  0  0
    0.3978   -5.1561   26.6955 C   0  0  0  0  0  0  0  0  0  0  0  0
    2.3063  -10.0533   30.0125 C   0  0  0  0  0  0  0  0  0  0  0  0
    1.8591   -6.8254   27.4685 N   0  0  0  0  0  0  0  0  0  0  0  0
   -0.2167  -12.1055   18.5568 C   0  0  0  0  0  0  0  0  0  0  0  0
   -2.0661  -10.6994   18.1916 C   0  0  0  0  0  0  0  0  0  0  0  0
    5.2703   -7.5691   27.1123 C   0  0  0  0  0  0  0  0  0  0  0  0
    1.6204   -9.9887   17.2935 C   0  0  0  0  0  0  0  0  0  0  0  0
    1.8931   -7.9265   16.2047 C   0  0  0  0  0  0  0  0  0  0  0  0
    2.4396   -9.0801   16.7132 C   0  0  0  0  0  0  0  0  0  0  0  0
   -0.2575   -8.6234   16.8582 C   0  0  0  0  0  0  0  0  0  0  0  0
    4.0614   -7.0367   27.0106 N   0  0  0  0  0  0  0  0  0  0  0  0
   -2.9133  -11.6279   18.7578 C   0  0  0  0  0  0  0  0  0  0  0  0
    4.5688  -10.1291   29.5758 C   0  0  0  0  0  0  0  0  0  0  0  0
    2.1008   -9.0410   29.1852 N   0  0  0  0  0  0  0  0  0  0  0  0
    3.4829  -10.5697   30.2091 N   0  0  0  0  0  0  0  0  0  0  0  0
   -0.3363   -6.1172   27.5628 C   0  0  0  0  0  0  0  0  0  0  0  0
    3.0331   -7.4400   27.6362 C   0  0  0  0  0  0  0  0  0  0  0  0
    5.4553   -8.5933   27.9644 C   0  0  0  0  0  0  0  0  0  0  0  0
   -2.3870  -12.8440   19.2512 C   0  0  0  0  0  0  0  0  0  0  0  0
    0.5331   -7.6964   16.2751 C   0  0  0  0  0  0  0  0  0  0  0  0
   -0.6740  -10.8737   18.0482 C   0  0  0  0  0  0  0  0  0  0  0  0
    5.6751  -10.5870   29.7637 O   0  0  0  0  0  0  0  0  0  0  0  0
    1.7612   -5.6483   26.7172 C   0  0  0  0  0  0  0  0  0  0  0  0
    0.2221   -9.8326   17.4055 C   0  0  0  0  0  0  0  0  0  0  0  0
    4.3850   -9.0730   28.6745 C   0  0  0  0  0  0  0  0  0  0  0  0
  1  7  4  0
  1 22  4  0
  2 17  4  0
  2 20  4  0
  2 28  4  0
  3  6  1  0
  3 19  1  0
  4 19  1  0
  4 26  1  0
  5 17  4  0
  5 18  4  0
  6 20  1  0
  6 26  1  0
  7 24  4  0
  8 15  4  0
  8 24  4  0
  9 14  4  0
  9 21  4  0
 10 12  4  0
 10 27  4  0
 11 12  4  0
 11 23  4  0
 13 23  4  0
 13 27  4  0
 14 20  4  0
 15 22  4  0
 16 18  4  0
 16 25  2  0
 16 28  4  0
 21 28  4  0
 24 27  1  0
M  END
$$$$

 Created by Python create_sdf_string function

 28 31  0  0  0  0  0  0  0  0999 V2000
   -1.0054  -13.0622   19.1198 C   0  0  0  0  0  0  0  0  0  0  0  0
    3.1478   -8.5360   28.5161 C   0  0  0  0  0  0  0  0  0  0  0  0
    0.5798   -7.1906   27.9330 C   0  0  0  0  0  0  0  0  0  0  0  0
    0.3978   -5.1561   26.6955 C   0  0  0  0  0  0  0  0  0  0  0  0
    2.3063  -10.0533   30.0125 C   0  0  0  0  0  0  0  0  0  0  0  0
    1.8591   -6.8254   27.4685 N   0  0  0  0  0  0  0  0  0  0  0  0
   -0.2167  -12.1055   18.5568 C   0  0  0  0  0  0  0  0  0  0  0  0
   -2.0661  -10.6994   18.1916 C   0  0  0  0  0  0  0  0  0  0  0  0
    5.2703   -7.5691   27.1123 C   0  0  0  0  0  0  0  0  0  0  0  0
    1.6204   -9.9887   17.2935 C   0  0  0  0  0  0  0  0  0  0  0  0
    1.8931   -7.9265   16.2047 C   0  0  0  0  0  0  0  0  0  0  0  0
    2.4396   -9.0801   16.7132 C   0  0  0  0  0  0  0  0  0  0  0  0
   -0.2575   -8.6234   16.8582 C   0  0  0  0  0  0  0  0  0  0  0  0
    4.0614   -7.0367   27.0106 N   0  0  0  0  0  0  0  0  0  0  0  0
   -2.9133  -11.6279   18.7578 C   0  0  0  0  0  0  0  0  0  0  0  0
    4.5688  -10.1291   29.5758 C   0  0  0  0  0  0  0  0  0  0  0  0
    2.1008   -9.0410   29.1852 N   0  0  0  0  0  0  0  0  0  0  0  0
    3.4829  -10.5697   30.2091 N   0  0  0  0  0  0  0  0  0  0  0  0
   -0.3363   -6.1172   27.5628 C   0  0  0  0  0  0  0  0  0  0  0  0
    3.0331   -7.4400   27.6362 C   0  0  0  0  0  0  0  0  0  0  0  0
    5.4553   -8.5933   27.9644 C   0  0  0  0  0  0  0  0  0  0  0  0
   -2.3870  -12.8440   19.2512 C   0  0  0  0  0  0  0  0  0  0  0  0
    0.5331   -7.6964   16.2751 C   0  0  0  0  0  0  0  0  0  0  0  0
   -0.6740  -10.8737   18.0482 C   0  0  0  0  0  0  0  0  0  0  0  0
    5.6751  -10.5870   29.7637 O   0  0  0  0  0  0  0  0  0  0  0  0
    1.7612   -5.6483   26.7172 C   0  0  0  0  0  0  0  0  0  0  0  0
    0.2221   -9.8326   17.4055 C   0  0  0  0  0  0  0  0  0  0  0  0
    4.3850   -9.0730   28.6745 C   0  0  0  0  0  0  0  0  0  0  0  0
  1  7  4  0
  1 22  4  0
  2 17  4  0
  2 20  4  0
  2 28  4  0
  3  6  1  0
  3 19  1  0
  4 19  1  0
  4 26  1  0
  5 17  4  0
  5 18  4  0
  6 20  1  0
  6 26  1  0
  7 24  4  0
  8 15  4  0
  8 24  4  0
  9 14  4  0
  9 21  4  0
 10 12  4  0
 10 27  4  0
 11 12  4  0
 11 23  4  0
 13 23  4  0
 13 27  4  0
 14 20  4  0
 15 22  4  0
 16 18  4  0
 16 25  2  0
 16 28  4  0
 21 28  4  0
 24 27  1  0
M  END
$$$$

 Created by Python create_sdf_string function

 28 31  0  0  0  0  0  0  0  0999 V2000
   -1.0054  -13.0622   19.1198 C   0  0  0  0  0  0  0  0  0  0  0  0
    3.1478   -8.5360   28.5161 C   0  0  0  0  0  0  0  0  0  0  0  0
    0.5798   -7.1906   27.9330 C   0  0  0  0  0  0  0  0  0  0  0  0
    0.3978   -5.1561   26.6955 C   0  0  0  0  0  0  0  0  0  0  0  0
    2.3063  -10.0533   30.0125 C   0  0  0  0  0  0  0  0  0  0  0  0
    1.8591   -6.8254   27.4685 N   0  0  0  0  0  0  0  0  0  0  0  0
   -0.2167  -12.1055   18.5568 C   0  0  0  0  0  0  0  0  0  0  0  0
   -2.0661  -10.6994   18.1916 C   0  0  0  0  0  0  0  0  0  0  0  0
    5.2703   -7.5691   27.1123 C   0  0  0  0  0  0  0  0  0  0  0  0
    1.6204   -9.9887   17.2935 C   0  0  0  0  0  0  0  0  0  0  0  0
    1.8931   -7.9265   16.2047 C   0  0  0  0  0  0  0  0  0  0  0  0
    2.4396   -9.0801   16.7132 C   0  0  0  0  0  0  0  0  0  0  0  0
   -0.2575   -8.6234   16.8582 C   0  0  0  0  0  0  0  0  0  0  0  0
    4.0614   -7.0367   27.0106 N   0  0  0  0  0  0  0  0  0  0  0  0
   -2.9133  -11.6279   18.7578 C   0  0  0  0  0  0  0  0  0  0  0  0
    4.5688  -10.1291   29.5758 C   0  0  0  0  0  0  0  0  0  0  0  0
    2.1008   -9.0410   29.1852 N   0  0  0  0  0  0  0  0  0  0  0  0
    3.4829  -10.5697   30.2091 N   0  0  0  0  0  0  0  0  0  0  0  0
   -0.3363   -6.1172   27.5628 C   0  0  0  0  0  0  0  0  0  0  0  0
    3.0331   -7.4400   27.6362 C   0  0  0  0  0  0  0  0  0  0  0  0
    5.4553   -8.5933   27.9644 C   0  0  0  0  0  0  0  0  0  0  0  0
   -2.3870  -12.8440   19.2512 C   0  0  0  0  0  0  0  0  0  0  0  0
    0.5331   -7.6964   16.2751 C   0  0  0  0  0  0  0  0  0  0  0  0
   -0.6740  -10.8737   18.0482 C   0  0  0  0  0  0  0  0  0  0  0  0
    5.6751  -10.5870   29.7637 O   0  0  0  0  0  0  0  0  0  0  0  0
    1.7612   -5.6483   26.7172 C   0  0  0  0  0  0  0  0  0  0  0  0
    0.2221   -9.8326   17.4055 C   0  0  0  0  0  0  0  0  0  0  0  0
    4.3850   -9.0730   28.6745 C   0  0  0  0  0  0  0  0  0  0  0  0
  1  7  4  0
  1 22  4  0
  2 17  4  0
  2 20  4  0
  2 28  4  0
  3  6  1  0
  3 19  1  0
  4 19  1  0
  4 26  1  0
  5 17  4  0
  5 18  4  0
  6 20  1  0
  6 26  1  0
  7 24  4  0
  8 15  4  0
  8 24  4  0
  9 14  4  0
  9 21  4  0
 10 12  4  0
 10 27  4  0
 11 12  4  0
 11 23  4  0
 13 23  4  0
 13 27  4  0
 14 20  4  0
 15 22  4  0
 16 18  4  0
 16 25  2  0
 16 28  4  0
 21 28  4  0
 24 27  1  0
M  END
$$$$

 Created by Python create_sdf_string function

 28 31  0  0  0  0  0  0  0  0999 V2000
   -1.0054  -13.0622   19.1198 C   0  0  0  0  0  0  0  0  0  0  0  0
    3.1478   -8.5360   28.5161 C   0  0  0  0  0  0  0  0  0  0  0  0
    0.5798   -7.1906   27.9330 C   0  0  0  0  0  0  0  0  0  0  0  0
    0.3978   -5.1561   26.6955 C   0  0  0  0  0  0  0  0  0  0  0  0
    2.3063  -10.0533   30.0125 C   0  0  0  0  0  0  0  0  0  0  0  0
    1.8591   -6.8254   27.4685 N   0  0  0  0  0  0  0  0  0  0  0  0
   -0.2167  -12.1055   18.5568 C   0  0  0  0  0  0  0  0  0  0  0  0
   -2.0661  -10.6994   18.1916 C   0  0  0  0  0  0  0  0  0  0  0  0
    5.2703   -7.5691   27.1123 C   0  0  0  0  0  0  0  0  0  0  0  0
    1.6204   -9.9887   17.2935 C   0  0  0  0  0  0  0  0  0  0  0  0
    1.8931   -7.9265   16.2047 C   0  0  0  0  0  0  0  0  0  0  0  0
    2.4396   -9.0801   16.7132 C   0  0  0  0  0  0  0  0  0  0  0  0
   -0.2575   -8.6234   16.8582 C   0  0  0  0  0  0  0  0  0  0  0  0
    4.0614   -7.0367   27.0106 N   0  0  0  0  0  0  0  0  0  0  0  0
   -2.9133  -11.6279   18.7578 C   0  0  0  0  0  0  0  0  0  0  0  0
    4.5688  -10.1291   29.5758 C   0  0  0  0  0  0  0  0  0  0  0  0
    2.1008   -9.0410   29.1852 N   0  0  0  0  0  0  0  0  0  0  0  0
    3.4829  -10.5697   30.2091 N   0  0  0  0  0  0  0  0  0  0  0  0
   -0.3363   -6.1172   27.5628 C   0  0  0  0  0  0  0  0  0  0  0  0
    3.0331   -7.4400   27.6362 C   0  0  0  0  0  0  0  0  0  0  0  0
    5.4553   -8.5933   27.9644 C   0  0  0  0  0  0  0  0  0  0  0  0
   -2.3870  -12.8440   19.2512 C   0  0  0  0  0  0  0  0  0  0  0  0
    0.5331   -7.6964   16.2751 C   0  0  0  0  0  0  0  0  0  0  0  0
   -0.6740  -10.8737   18.0482 C   0  0  0  0  0  0  0  0  0  0  0  0
    5.6751  -10.5870   29.7637 O   0  0  0  0  0  0  0  0  0  0  0  0
    1.7612   -5.6483   26.7172 C   0  0  0  0  0  0  0  0  0  0  0  0
    0.2221   -9.8326   17.4055 C   0  0  0  0  0  0  0  0  0  0  0  0
    4.3850   -9.0730   28.6745 C   0  0  0  0  0  0  0  0  0  0  0  0
  1  7  4  0
  1 22  4  0
  2 17  4  0
  2 20  4  0
  2 28  4  0
  3  6  1  0
  3 19  1  0
  4 19  1  0
  4 26  1  0
  5 17  4  0
  5 18  4  0
  6 20  1  0
  6 26  1  0
  7 24  4  0
  8 15  4  0
  8 24  4  0
  9 14  4  0
  9 21  4  0
 10 12  4  0
 10 27  4  0
 11 12  4  0
 11 23  4  0
 13 23  4  0
 13 27  4  0
 14 20  4  0
 15 22  4  0
 16 18  4  0
 16 25  2  0
 16 28  4  0
 21 28  4  0
 24 27  1  0
M  END
$$$$

 Created by Python create_sdf_string function

 28 31  0  0  0  0  0  0  0  0999 V2000
   -1.0054  -13.0622   19.1198 C   0  0  0  0  0  0  0  0  0  0  0  0
    3.1478   -8.5360   28.5161 C   0  0  0  0  0  0  0  0  0  0  0  0
    0.5798   -7.1906   27.9330 C   0  0  0  0  0  0  0  0  0  0  0  0
    0.3978   -5.1561   26.6955 C   0  0  0  0  0  0  0  0  0  0  0  0
    2.3063  -10.0533   30.0125 C   0  0  0  0  0  0  0  0  0  0  0  0
    1.8591   -6.8254   27.4685 N   0  0  0  0  0  0  0  0  0  0  0  0
   -0.2167  -12.1055   18.5568 C   0  0  0  0  0  0  0  0  0  0  0  0
   -2.0661  -10.6994   18.1916 C   0  0  0  0  0  0  0  0  0  0  0  0
    5.2703   -7.5691   27.1123 C   0  0  0  0  0  0  0  0  0  0  0  0
    1.6204   -9.9887   17.2935 C   0  0  0  0  0  0  0  0  0  0  0  0
    1.8931   -7.9265   16.2047 C   0  0  0  0  0  0  0  0  0  0  0  0
    2.4396   -9.0801   16.7132 C   0  0  0  0  0  0  0  0  0  0  0  0
   -0.2575   -8.6234   16.8582 C   0  0  0  0  0  0  0  0  0  0  0  0
    4.0614   -7.0367   27.0106 N   0  0  0  0  0  0  0  0  0  0  0  0
   -2.9133  -11.6279   18.7578 C   0  0  0  0  0  0  0  0  0  0  0  0
    4.5688  -10.1291   29.5758 C   0  0  0  0  0  0  0  0  0  0  0  0
    2.1008   -9.0410   29.1852 N   0  0  0  0  0  0  0  0  0  0  0  0
    3.4829  -10.5697   30.2091 N   0  0  0  0  0  0  0  0  0  0  0  0
   -0.3363   -6.1172   27.5628 C   0  0  0  0  0  0  0  0  0  0  0  0
    3.0331   -7.4400   27.6362 C   0  0  0  0  0  0  0  0  0  0  0  0
    5.4553   -8.5933   27.9644 C   0  0  0  0  0  0  0  0  0  0  0  0
   -2.3870  -12.8440   19.2512 C   0  0  0  0  0  0  0  0  0  0  0  0
    0.5331   -7.6964   16.2751 C   0  0  0  0  0  0  0  0  0  0  0  0
   -0.6740  -10.8737   18.0482 C   0  0  0  0  0  0  0  0  0  0  0  0
    5.6751  -10.5870   29.7637 O   0  0  0  0  0  0  0  0  0  0  0  0
    1.7612   -5.6483   26.7172 C   0  0  0  0  0  0  0  0  0  0  0  0
    0.2221   -9.8326   17.4055 C   0  0  0  0  0  0  0  0  0  0  0  0
    4.3850   -9.0730   28.6745 C   0  0  0  0  0  0  0  0  0  0  0  0
  1  7  4  0
  1 22  4  0
  2 17  4  0
  2 20  4  0
  2 28  4  0
  3  6  1  0
  3 19  1  0
  4 19  1  0
  4 26  1  0
  5 17  4  0
  5 18  4  0
  6 20  1  0
  6 26  1  0
  7 24  4  0
  8 15  4  0
  8 24  4  0
  9 14  4  0
  9 21  4  0
 10 12  4  0
 10 27  4  0
 11 12  4  0
 11 23  4  0
 13 23  4  0
 13 27  4  0
 14 20  4  0
 15 22  4  0
 16 18  4  0
 16 25  2  0
 16 28  4  0
 21 28  4  0
 24 27  1  0
M  END
$$$$

 Created by Python create_sdf_string function

 28 31  0  0  0  0  0  0  0  0999 V2000
   -1.0054  -13.0622   19.1198 C   0  0  0  0  0  0  0  0  0  0  0  0
    3.1478   -8.5360   28.5161 C   0  0  0  0  0  0  0  0  0  0  0  0
    0.5798   -7.1906   27.9330 C   0  0  0  0  0  0  0  0  0  0  0  0
    0.3978   -5.1561   26.6955 C   0  0  0  0  0  0  0  0  0  0  0  0
    2.3063  -10.0533   30.0125 C   0  0  0  0  0  0  0  0  0  0  0  0
    1.8591   -6.8254   27.4685 N   0  0  0  0  0  0  0  0  0  0  0  0
   -0.2167  -12.1055   18.5568 C   0  0  0  0  0  0  0  0  0  0  0  0
   -2.0661  -10.6994   18.1916 C   0  0  0  0  0  0  0  0  0  0  0  0
    5.2703   -7.5691   27.1123 C   0  0  0  0  0  0  0  0  0  0  0  0
    1.6204   -9.9887   17.2935 C   0  0  0  0  0  0  0  0  0  0  0  0
    1.8931   -7.9265   16.2047 C   0  0  0  0  0  0  0  0  0  0  0  0
    2.4396   -9.0801   16.7132 C   0  0  0  0  0  0  0  0  0  0  0  0
   -0.2575   -8.6234   16.8582 C   0  0  0  0  0  0  0  0  0  0  0  0
    4.0614   -7.0367   27.0106 N   0  0  0  0  0  0  0  0  0  0  0  0
   -2.9133  -11.6279   18.7578 C   0  0  0  0  0  0  0  0  0  0  0  0
    4.5688  -10.1291   29.5758 C   0  0  0  0  0  0  0  0  0  0  0  0
    2.1008   -9.0410   29.1852 N   0  0  0  0  0  0  0  0  0  0  0  0
    3.4829  -10.5697   30.2091 N   0  0  0  0  0  0  0  0  0  0  0  0
   -0.3363   -6.1172   27.5628 C   0  0  0  0  0  0  0  0  0  0  0  0
    3.0331   -7.4400   27.6362 C   0  0  0  0  0  0  0  0  0  0  0  0
    5.4553   -8.5933   27.9644 C   0  0  0  0  0  0  0  0  0  0  0  0
   -2.3870  -12.8440   19.2512 C   0  0  0  0  0  0  0  0  0  0  0  0
    0.5331   -7.6964   16.2751 C   0  0  0  0  0  0  0  0  0  0  0  0
   -0.6740  -10.8737   18.0482 C   0  0  0  0  0  0  0  0  0  0  0  0
    5.6751  -10.5870   29.7637 O   0  0  0  0  0  0  0  0  0  0  0  0
    1.7612   -5.6483   26.7172 C   0  0  0  0  0  0  0  0  0  0  0  0
    0.2221   -9.8326   17.4055 C   0  0  0  0  0  0  0  0  0  0  0  0
    4.3850   -9.0730   28.6745 C   0  0  0  0  0  0  0  0  0  0  0  0
  1  7  4  0
  1 22  4  0
  2 17  4  0
  2 20  4  0
  2 28  4  0
  3  6  1  0
  3 19  1  0
  4 19  1  0
  4 26  1  0
  5 17  4  0
  5 18  4  0
  6 20  1  0
  6 26  1  0
  7 24  4  0
  8 15  4  0
  8 24  4  0
  9 14  4  0
  9 21  4  0
 10 12  4  0
 10 27  4  0
 11 12  4  0
 11 23  4  0
 13 23  4  0
 13 27  4  0
 14 20  4  0
 15 22  4  0
 16 18  4  0
 16 25  2  0
 16 28  4  0
 21 28  4  0
 24 27  1  0
M  END
$$$$

 Created by Python create_sdf_string function

 28 31  0  0  0  0  0  0  0  0999 V2000
   -1.0054  -13.0622   19.1198 C   0  0  0  0  0  0  0  0  0  0  0  0
    3.1478   -8.5360   28.5161 C   0  0  0  0  0  0  0  0  0  0  0  0
    0.5798   -7.1906   27.9330 C   0  0  0  0  0  0  0  0  0  0  0  0
    0.3978   -5.1561   26.6955 C   0  0  0  0  0  0  0  0  0  0  0  0
    2.3063  -10.0533   30.0125 C   0  0  0  0  0  0  0  0  0  0  0  0
    1.8591   -6.8254   27.4685 N   0  0  0  0  0  0  0  0  0  0  0  0
   -0.2167  -12.1055   18.5568 C   0  0  0  0  0  0  0  0  0  0  0  0
   -2.0661  -10.6994   18.1916 C   0  0  0  0  0  0  0  0  0  0  0  0
    5.2703   -7.5691   27.1123 C   0  0  0  0  0  0  0  0  0  0  0  0
    1.6204   -9.9887   17.2935 C   0  0  0  0  0  0  0  0  0  0  0  0
    1.8931   -7.9265   16.2047 C   0  0  0  0  0  0  0  0  0  0  0  0
    2.4396   -9.0801   16.7132 C   0  0  0  0  0  0  0  0  0  0  0  0
   -0.2575   -8.6234   16.8582 C   0  0  0  0  0  0  0  0  0  0  0  0
    4.0614   -7.0367   27.0106 N   0  0  0  0  0  0  0  0  0  0  0  0
   -2.9133  -11.6279   18.7578 C   0  0  0  0  0  0  0  0  0  0  0  0
    4.5688  -10.1291   29.5758 C   0  0  0  0  0  0  0  0  0  0  0  0
    2.1008   -9.0410   29.1852 N   0  0  0  0  0  0  0  0  0  0  0  0
    3.4829  -10.5697   30.2091 N   0  0  0  0  0  0  0  0  0  0  0  0
   -0.3363   -6.1172   27.5628 C   0  0  0  0  0  0  0  0  0  0  0  0
    3.0331   -7.4400   27.6362 C   0  0  0  0  0  0  0  0  0  0  0  0
    5.4553   -8.5933   27.9644 C   0  0  0  0  0  0  0  0  0  0  0  0
   -2.3870  -12.8440   19.2512 C   0  0  0  0  0  0  0  0  0  0  0  0
    0.5331   -7.6964   16.2751 C   0  0  0  0  0  0  0  0  0  0  0  0
   -0.6740  -10.8737   18.0482 C   0  0  0  0  0  0  0  0  0  0  0  0
    5.6751  -10.5870   29.7637 O   0  0  0  0  0  0  0  0  0  0  0  0
    1.7612   -5.6483   26.7172 C   0  0  0  0  0  0  0  0  0  0  0  0
    0.2221   -9.8326   17.4055 C   0  0  0  0  0  0  0  0  0  0  0  0
    4.3850   -9.0730   28.6745 C   0  0  0  0  0  0  0  0  0  0  0  0
  1  7  4  0
  1 22  4  0
  2 17  4  0
  2 20  4  0
  2 28  4  0
  3  6  1  0
  3 19  1  0
  4 19  1  0
  4 26  1  0
  5 17  4  0
  5 18  4  0
  6 20  1  0
  6 26  1  0
  7 24  4  0
  8 15  4  0
  8 24  4  0
  9 14  4  0
  9 21  4  0
 10 12  4  0
 10 27  4  0
 11 12  4  0
 11 23  4  0
 13 23  4  0
 13 27  4  0
 14 20  4  0
 15 22  4  0
 16 18  4  0
 16 25  2  0
 16 28  4  0
 21 28  4  0
 24 27  1  0
M  END
$$$$

 Created by Python create_sdf_string function

 28 31  0  0  0  0  0  0  0  0999 V2000
   -1.0054  -13.0622   19.1198 C   0  0  0  0  0  0  0  0  0  0  0  0
    3.1478   -8.5360   28.5161 C   0  0  0  0  0  0  0  0  0  0  0  0
    0.5798   -7.1906   27.9330 C   0  0  0  0  0  0  0  0  0  0  0  0
    0.3978   -5.1561   26.6955 C   0  0  0  0  0  0  0  0  0  0  0  0
    2.3063  -10.0533   30.0125 C   0  0  0  0  0  0  0  0  0  0  0  0
    1.8591   -6.8254   27.4685 N   0  0  0  0  0  0  0  0  0  0  0  0
   -0.2167  -12.1055   18.5568 C   0  0  0  0  0  0  0  0  0  0  0  0
   -2.0661  -10.6994   18.1916 C   0  0  0  0  0  0  0  0  0  0  0  0
    5.2703   -7.5691   27.1123 C   0  0  0  0  0  0  0  0  0  0  0  0
    1.6204   -9.9887   17.2935 C   0  0  0  0  0  0  0  0  0  0  0  0
    1.8931   -7.9265   16.2047 C   0  0  0  0  0  0  0  0  0  0  0  0
    2.4396   -9.0801   16.7132 C   0  0  0  0  0  0  0  0  0  0  0  0
   -0.2575   -8.6234   16.8582 C   0  0  0  0  0  0  0  0  0  0  0  0
    4.0614   -7.0367   27.0106 N   0  0  0  0  0  0  0  0  0  0  0  0
   -2.9133  -11.6279   18.7578 C   0  0  0  0  0  0  0  0  0  0  0  0
    4.5688  -10.1291   29.5758 C   0  0  0  0  0  0  0  0  0  0  0  0
    2.1008   -9.0410   29.1852 N   0  0  0  0  0  0  0  0  0  0  0  0
    3.4829  -10.5697   30.2091 N   0  0  0  0  0  0  0  0  0  0  0  0
   -0.3363   -6.1172   27.5628 C   0  0  0  0  0  0  0  0  0  0  0  0
    3.0331   -7.4400   27.6362 C   0  0  0  0  0  0  0  0  0  0  0  0
    5.4553   -8.5933   27.9644 C   0  0  0  0  0  0  0  0  0  0  0  0
   -2.3870  -12.8440   19.2512 C   0  0  0  0  0  0  0  0  0  0  0  0
    0.5331   -7.6964   16.2751 C   0  0  0  0  0  0  0  0  0  0  0  0
   -0.6740  -10.8737   18.0482 C   0  0  0  0  0  0  0  0  0  0  0  0
    5.6751  -10.5870   29.7637 O   0  0  0  0  0  0  0  0  0  0  0  0
    1.7612   -5.6483   26.7172 C   0  0  0  0  0  0  0  0  0  0  0  0
    0.2221   -9.8326   17.4055 C   0  0  0  0  0  0  0  0  0  0  0  0
    4.3850   -9.0730   28.6745 C   0  0  0  0  0  0  0  0  0  0  0  0
  1  7  4  0
  1 22  4  0
  2 17  4  0
  2 20  4  0
  2 28  4  0
  3  6  1  0
  3 19  1  0
  4 19  1  0
  4 26  1  0
  5 17  4  0
  5 18  4  0
  6 20  1  0
  6 26  1  0
  7 24  4  0
  8 15  4  0
  8 24  4  0
  9 14  4  0
  9 21  4  0
 10 12  4  0
 10 27  4  0
 11 12  4  0
 11 23  4  0
 13 23  4  0
 13 27  4  0
 14 20  4  0
 15 22  4  0
 16 18  4  0
 16 25  2  0
 16 28  4  0
 21 28  4  0
 24 27  1  0
M  END
$$$$

 Created by Python create_sdf_string function

 28 31  0  0  0  0  0  0  0  0999 V2000
   -1.0054  -13.0622   19.1198 C   0  0  0  0  0  0  0  0  0  0  0  0
    3.1478   -8.5360   28.5161 C   0  0  0  0  0  0  0  0  0  0  0  0
    0.5798   -7.1906   27.9330 C   0  0  0  0  0  0  0  0  0  0  0  0
    0.3978   -5.1561   26.6955 C   0  0  0  0  0  0  0  0  0  0  0  0
    2.3063  -10.0533   30.0125 C   0  0  0  0  0  0  0  0  0  0  0  0
    1.8591   -6.8254   27.4685 N   0  0  0  0  0  0  0  0  0  0  0  0
   -0.2167  -12.1055   18.5568 C   0  0  0  0  0  0  0  0  0  0  0  0
   -2.0661  -10.6994   18.1916 C   0  0  0  0  0  0  0  0  0  0  0  0
    5.2703   -7.5691   27.1123 C   0  0  0  0  0  0  0  0  0  0  0  0
    1.6204   -9.9887   17.2935 C   0  0  0  0  0  0  0  0  0  0  0  0
    1.8931   -7.9265   16.2047 C   0  0  0  0  0  0  0  0  0  0  0  0
    2.4396   -9.0801   16.7132 C   0  0  0  0  0  0  0  0  0  0  0  0
   -0.2575   -8.6234   16.8582 C   0  0  0  0  0  0  0  0  0  0  0  0
    4.0614   -7.0367   27.0106 N   0  0  0  0  0  0  0  0  0  0  0  0
   -2.9133  -11.6279   18.7578 C   0  0  0  0  0  0  0  0  0  0  0  0
    4.5688  -10.1291   29.5758 C   0  0  0  0  0  0  0  0  0  0  0  0
    2.1008   -9.0410   29.1852 N   0  0  0  0  0  0  0  0  0  0  0  0
    3.4829  -10.5697   30.2091 N   0  0  0  0  0  0  0  0  0  0  0  0
   -0.3363   -6.1172   27.5628 C   0  0  0  0  0  0  0  0  0  0  0  0
    3.0331   -7.4400   27.6362 C   0  0  0  0  0  0  0  0  0  0  0  0
    5.4553   -8.5933   27.9644 C   0  0  0  0  0  0  0  0  0  0  0  0
   -2.3870  -12.8440   19.2512 C   0  0  0  0  0  0  0  0  0  0  0  0
    0.5331   -7.6964   16.2751 C   0  0  0  0  0  0  0  0  0  0  0  0
   -0.6740  -10.8737   18.0482 C   0  0  0  0  0  0  0  0  0  0  0  0
    5.6751  -10.5870   29.7637 O   0  0  0  0  0  0  0  0  0  0  0  0
    1.7612   -5.6483   26.7172 C   0  0  0  0  0  0  0  0  0  0  0  0
    0.2221   -9.8326   17.4055 C   0  0  0  0  0  0  0  0  0  0  0  0
    4.3850   -9.0730   28.6745 C   0  0  0  0  0  0  0  0  0  0  0  0
  1  7  4  0
  1 22  4  0
  2 17  4  0
  2 20  4  0
  2 28  4  0
  3  6  1  0
  3 19  1  0
  4 19  1  0
  4 26  1  0
  5 17  4  0
  5 18  4  0
  6 20  1  0
  6 26  1  0
  7 24  4  0
  8 15  4  0
  8 24  4  0
  9 14  4  0
  9 21  4  0
 10 12  4  0
 10 27  4  0
 11 12  4  0
 11 23  4  0
 13 23  4  0
 13 27  4  0
 14 20  4  0
 15 22  4  0
 16 18  4  0
 16 25  2  0
 16 28  4  0
 21 28  4  0
 24 27  1  0
M  END
$$$$

 Created by Python create_sdf_string function

 28 31  0  0  0  0  0  0  0  0999 V2000
   -1.0054  -13.0622   19.1198 C   0  0  0  0  0  0  0  0  0  0  0  0
    3.1478   -8.5360   28.5161 C   0  0  0  0  0  0  0  0  0  0  0  0
    0.5798   -7.1906   27.9330 C   0  0  0  0  0  0  0  0  0  0  0  0
    0.3978   -5.1561   26.6955 C   0  0  0  0  0  0  0  0  0  0  0  0
    2.3063  -10.0533   30.0125 C   0  0  0  0  0  0  0  0  0  0  0  0
    1.8591   -6.8254   27.4685 N   0  0  0  0  0  0  0  0  0  0  0  0
   -0.2167  -12.1055   18.5568 C   0  0  0  0  0  0  0  0  0  0  0  0
   -2.0661  -10.6994   18.1916 C   0  0  0  0  0  0  0  0  0  0  0  0
    5.2703   -7.5691   27.1123 C   0  0  0  0  0  0  0  0  0  0  0  0
    1.6204   -9.9887   17.2935 C   0  0  0  0  0  0  0  0  0  0  0  0
    1.8931   -7.9265   16.2047 C   0  0  0  0  0  0  0  0  0  0  0  0
    2.4396   -9.0801   16.7132 C   0  0  0  0  0  0  0  0  0  0  0  0
   -0.2575   -8.6234   16.8582 C   0  0  0  0  0  0  0  0  0  0  0  0
    4.0614   -7.0367   27.0106 N   0  0  0  0  0  0  0  0  0  0  0  0
   -2.9133  -11.6279   18.7578 C   0  0  0  0  0  0  0  0  0  0  0  0
    4.5688  -10.1291   29.5758 C   0  0  0  0  0  0  0  0  0  0  0  0
    2.1008   -9.0410   29.1852 N   0  0  0  0  0  0  0  0  0  0  0  0
    3.4829  -10.5697   30.2091 N   0  0  0  0  0  0  0  0  0  0  0  0
   -0.3363   -6.1172   27.5628 C   0  0  0  0  0  0  0  0  0  0  0  0
    3.0331   -7.4400   27.6362 C   0  0  0  0  0  0  0  0  0  0  0  0
    5.4553   -8.5933   27.9644 C   0  0  0  0  0  0  0  0  0  0  0  0
   -2.3870  -12.8440   19.2512 C   0  0  0  0  0  0  0  0  0  0  0  0
    0.5331   -7.6964   16.2751 C   0  0  0  0  0  0  0  0  0  0  0  0
   -0.6740  -10.8737   18.0482 C   0  0  0  0  0  0  0  0  0  0  0  0
    5.6751  -10.5870   29.7637 O   0  0  0  0  0  0  0  0  0  0  0  0
    1.7612   -5.6483   26.7172 C   0  0  0  0  0  0  0  0  0  0  0  0
    0.2221   -9.8326   17.4055 C   0  0  0  0  0  0  0  0  0  0  0  0
    4.3850   -9.0730   28.6745 C   0  0  0  0  0  0  0  0  0  0  0  0
  1  7  4  0
  1 22  4  0
  2 17  4  0
  2 20  4  0
  2 28  4  0
  3  6  1  0
  3 19  1  0
  4 19  1  0
  4 26  1  0
  5 17  4  0
  5 18  4  0
  6 20  1  0
  6 26  1  0
  7 24  4  0
  8 15  4  0
  8 24  4  0
  9 14  4  0
  9 21  4  0
 10 12  4  0
 10 27  4  0
 11 12  4  0
 11 23  4  0
 13 23  4  0
 13 27  4  0
 14 20  4  0
 15 22  4  0
 16 18  4  0
 16 25  2  0
 16 28  4  0
 21 28  4  0
 24 27  1  0
M  END
$$$$

 Created by Python create_sdf_string function

 28 31  0  0  0  0  0  0  0  0999 V2000
   -1.0054  -13.0622   19.1198 C   0  0  0  0  0  0  0  0  0  0  0  0
    3.1478   -8.5360   28.5161 C   0  0  0  0  0  0  0  0  0  0  0  0
    0.5798   -7.1906   27.9330 C   0  0  0  0  0  0  0  0  0  0  0  0
    0.3978   -5.1561   26.6955 C   0  0  0  0  0  0  0  0  0  0  0  0
    2.3063  -10.0533   30.0125 C   0  0  0  0  0  0  0  0  0  0  0  0
    1.8591   -6.8254   27.4685 N   0  0  0  0  0  0  0  0  0  0  0  0
   -0.2167  -12.1055   18.5568 C   0  0  0  0  0  0  0  0  0  0  0  0
   -2.0661  -10.6994   18.1916 C   0  0  0  0  0  0  0  0  0  0  0  0
    5.2703   -7.5691   27.1123 C   0  0  0  0  0  0  0  0  0  0  0  0
    1.6204   -9.9887   17.2935 C   0  0  0  0  0  0  0  0  0  0  0  0
    1.8931   -7.9265   16.2047 C   0  0  0  0  0  0  0  0  0  0  0  0
    2.4396   -9.0801   16.7132 C   0  0  0  0  0  0  0  0  0  0  0  0
   -0.2575   -8.6234   16.8582 C   0  0  0  0  0  0  0  0  0  0  0  0
    4.0614   -7.0367   27.0106 N   0  0  0  0  0  0  0  0  0  0  0  0
   -2.9133  -11.6279   18.7578 C   0  0  0  0  0  0  0  0  0  0  0  0
    4.5688  -10.1291   29.5758 C   0  0  0  0  0  0  0  0  0  0  0  0
    2.1008   -9.0410   29.1852 N   0  0  0  0  0  0  0  0  0  0  0  0
    3.4829  -10.5697   30.2091 N   0  0  0  0  0  0  0  0  0  0  0  0
   -0.3363   -6.1172   27.5628 C   0  0  0  0  0  0  0  0  0  0  0  0
    3.0331   -7.4400   27.6362 C   0  0  0  0  0  0  0  0  0  0  0  0
    5.4553   -8.5933   27.9644 C   0  0  0  0  0  0  0  0  0  0  0  0
   -2.3870  -12.8440   19.2512 C   0  0  0  0  0  0  0  0  0  0  0  0
    0.5331   -7.6964   16.2751 C   0  0  0  0  0  0  0  0  0  0  0  0
   -0.6740  -10.8737   18.0482 C   0  0  0  0  0  0  0  0  0  0  0  0
    5.6751  -10.5870   29.7637 O   0  0  0  0  0  0  0  0  0  0  0  0
    1.7612   -5.6483   26.7172 C   0  0  0  0  0  0  0  0  0  0  0  0
    0.2221   -9.8326   17.4055 C   0  0  0  0  0  0  0  0  0  0  0  0
    4.3850   -9.0730   28.6745 C   0  0  0  0  0  0  0  0  0  0  0  0
  1  7  4  0
  1 22  4  0
  2 17  4  0
  2 20  4  0
  2 28  4  0
  3  6  1  0
  3 19  1  0
  4 19  1  0
  4 26  1  0
  5 17  4  0
  5 18  4  0
  6 20  1  0
  6 26  1  0
  7 24  4  0
  8 15  4  0
  8 24  4  0
  9 14  4  0
  9 21  4  0
 10 12  4  0
 10 27  4  0
 11 12  4  0
 11 23  4  0
 13 23  4  0
 13 27  4  0
 14 20  4  0
 15 22  4  0
 16 18  4  0
 16 25  2  0
 16 28  4  0
 21 28  4  0
 24 27  1  0
M  END
$$$$

 Created by Python create_sdf_string function

 28 31  0  0  0  0  0  0  0  0999 V2000
   -1.0054  -13.0622   19.1198 C   0  0  0  0  0  0  0  0  0  0  0  0
    3.1478   -8.5360   28.5161 C   0  0  0  0  0  0  0  0  0  0  0  0
    0.5798   -7.1906   27.9330 C   0  0  0  0  0  0  0  0  0  0  0  0
    0.3978   -5.1561   26.6955 C   0  0  0  0  0  0  0  0  0  0  0  0
    2.3063  -10.0533   30.0125 C   0  0  0  0  0  0  0  0  0  0  0  0
    1.8591   -6.8254   27.4685 N   0  0  0  0  0  0  0  0  0  0  0  0
   -0.2167  -12.1055   18.5568 C   0  0  0  0  0  0  0  0  0  0  0  0
   -2.0661  -10.6994   18.1916 C   0  0  0  0  0  0  0  0  0  0  0  0
    5.2703   -7.5691   27.1123 C   0  0  0  0  0  0  0  0  0  0  0  0
    1.6204   -9.9887   17.2935 C   0  0  0  0  0  0  0  0  0  0  0  0
    1.8931   -7.9265   16.2047 C   0  0  0  0  0  0  0  0  0  0  0  0
    2.4396   -9.0801   16.7132 C   0  0  0  0  0  0  0  0  0  0  0  0
   -0.2575   -8.6234   16.8582 C   0  0  0  0  0  0  0  0  0  0  0  0
    4.0614   -7.0367   27.0106 N   0  0  0  0  0  0  0  0  0  0  0  0
   -2.9133  -11.6279   18.7578 C   0  0  0  0  0  0  0  0  0  0  0  0
    4.5688  -10.1291   29.5758 C   0  0  0  0  0  0  0  0  0  0  0  0
    2.1008   -9.0410   29.1852 N   0  0  0  0  0  0  0  0  0  0  0  0
    3.4829  -10.5697   30.2091 N   0  0  0  0  0  0  0  0  0  0  0  0
   -0.3363   -6.1172   27.5628 C   0  0  0  0  0  0  0  0  0  0  0  0
    3.0331   -7.4400   27.6362 C   0  0  0  0  0  0  0  0  0  0  0  0
    5.4553   -8.5933   27.9644 C   0  0  0  0  0  0  0  0  0  0  0  0
   -2.3870  -12.8440   19.2512 C   0  0  0  0  0  0  0  0  0  0  0  0
    0.5331   -7.6964   16.2751 C   0  0  0  0  0  0  0  0  0  0  0  0
   -0.6740  -10.8737   18.0482 C   0  0  0  0  0  0  0  0  0  0  0  0
    5.6751  -10.5870   29.7637 O   0  0  0  0  0  0  0  0  0  0  0  0
    1.7612   -5.6483   26.7172 C   0  0  0  0  0  0  0  0  0  0  0  0
    0.2221   -9.8326   17.4055 C   0  0  0  0  0  0  0  0  0  0  0  0
    4.3850   -9.0730   28.6745 C   0  0  0  0  0  0  0  0  0  0  0  0
  1  7  4  0
  1 22  4  0
  2 17  4  0
  2 20  4  0
  2 28  4  0
  3  6  1  0
  3 19  1  0
  4 19  1  0
  4 26  1  0
  5 17  4  0
  5 18  4  0
  6 20  1  0
  6 26  1  0
  7 24  4  0
  8 15  4  0
  8 24  4  0
  9 14  4  0
  9 21  4  0
 10 12  4  0
 10 27  4  0
 11 12  4  0
 11 23  4  0
 13 23  4  0
 13 27  4  0
 14 20  4  0
 15 22  4  0
 16 18  4  0
 16 25  2  0
 16 28  4  0
 21 28  4  0
 24 27  1  0
M  END
$$$$

 Created by Python create_sdf_string function

 28 31  0  0  0  0  0  0  0  0999 V2000
   -1.0054  -13.0622   19.1198 C   0  0  0  0  0  0  0  0  0  0  0  0
    3.1478   -8.5360   28.5161 C   0  0  0  0  0  0  0  0  0  0  0  0
    0.5798   -7.1906   27.9330 C   0  0  0  0  0  0  0  0  0  0  0  0
    0.3978   -5.1561   26.6955 C   0  0  0  0  0  0  0  0  0  0  0  0
    2.3063  -10.0533   30.0125 C   0  0  0  0  0  0  0  0  0  0  0  0
    1.8591   -6.8254   27.4685 N   0  0  0  0  0  0  0  0  0  0  0  0
   -0.2167  -12.1055   18.5568 C   0  0  0  0  0  0  0  0  0  0  0  0
   -2.0661  -10.6994   18.1916 C   0  0  0  0  0  0  0  0  0  0  0  0
    5.2703   -7.5691   27.1123 C   0  0  0  0  0  0  0  0  0  0  0  0
    1.6204   -9.9887   17.2935 C   0  0  0  0  0  0  0  0  0  0  0  0
    1.8931   -7.9265   16.2047 C   0  0  0  0  0  0  0  0  0  0  0  0
    2.4396   -9.0801   16.7132 C   0  0  0  0  0  0  0  0  0  0  0  0
   -0.2575   -8.6234   16.8582 C   0  0  0  0  0  0  0  0  0  0  0  0
    4.0614   -7.0367   27.0106 N   0  0  0  0  0  0  0  0  0  0  0  0
   -2.9133  -11.6279   18.7578 C   0  0  0  0  0  0  0  0  0  0  0  0
    4.5688  -10.1291   29.5758 C   0  0  0  0  0  0  0  0  0  0  0  0
    2.1008   -9.0410   29.1852 N   0  0  0  0  0  0  0  0  0  0  0  0
    3.4829  -10.5697   30.2091 N   0  0  0  0  0  0  0  0  0  0  0  0
   -0.3363   -6.1172   27.5628 C   0  0  0  0  0  0  0  0  0  0  0  0
    3.0331   -7.4400   27.6362 C   0  0  0  0  0  0  0  0  0  0  0  0
    5.4553   -8.5933   27.9644 C   0  0  0  0  0  0  0  0  0  0  0  0
   -2.3870  -12.8440   19.2512 C   0  0  0  0  0  0  0  0  0  0  0  0
    0.5331   -7.6964   16.2751 C   0  0  0  0  0  0  0  0  0  0  0  0
   -0.6740  -10.8737   18.0482 C   0  0  0  0  0  0  0  0  0  0  0  0
    5.6751  -10.5870   29.7637 O   0  0  0  0  0  0  0  0  0  0  0  0
    1.7612   -5.6483   26.7172 C   0  0  0  0  0  0  0  0  0  0  0  0
    0.2221   -9.8326   17.4055 C   0  0  0  0  0  0  0  0  0  0  0  0
    4.3850   -9.0730   28.6745 C   0  0  0  0  0  0  0  0  0  0  0  0
  1  7  4  0
  1 22  4  0
  2 17  4  0
  2 20  4  0
  2 28  4  0
  3  6  1  0
  3 19  1  0
  4 19  1  0
  4 26  1  0
  5 17  4  0
  5 18  4  0
  6 20  1  0
  6 26  1  0
  7 24  4  0
  8 15  4  0
  8 24  4  0
  9 14  4  0
  9 21  4  0
 10 12  4  0
 10 27  4  0
 11 12  4  0
 11 23  4  0
 13 23  4  0
 13 27  4  0
 14 20  4  0
 15 22  4  0
 16 18  4  0
 16 25  2  0
 16 28  4  0
 21 28  4  0
 24 27  1  0
M  END
$$$$

 Created by Python create_sdf_string function

 28 31  0  0  0  0  0  0  0  0999 V2000
   -1.0054  -13.0622   19.1198 C   0  0  0  0  0  0  0  0  0  0  0  0
    3.1478   -8.5360   28.5161 C   0  0  0  0  0  0  0  0  0  0  0  0
    0.5798   -7.1906   27.9330 C   0  0  0  0  0  0  0  0  0  0  0  0
    0.3978   -5.1561   26.6955 C   0  0  0  0  0  0  0  0  0  0  0  0
    2.3063  -10.0533   30.0125 C   0  0  0  0  0  0  0  0  0  0  0  0
    1.8591   -6.8254   27.4685 N   0  0  0  0  0  0  0  0  0  0  0  0
   -0.2167  -12.1055   18.5568 C   0  0  0  0  0  0  0  0  0  0  0  0
   -2.0661  -10.6994   18.1916 C   0  0  0  0  0  0  0  0  0  0  0  0
    5.2703   -7.5691   27.1123 C   0  0  0  0  0  0  0  0  0  0  0  0
    1.6204   -9.9887   17.2935 C   0  0  0  0  0  0  0  0  0  0  0  0
    1.8931   -7.9265   16.2047 C   0  0  0  0  0  0  0  0  0  0  0  0
    2.4396   -9.0801   16.7132 C   0  0  0  0  0  0  0  0  0  0  0  0
   -0.2575   -8.6234   16.8582 C   0  0  0  0  0  0  0  0  0  0  0  0
    4.0614   -7.0367   27.0106 N   0  0  0  0  0  0  0  0  0  0  0  0
   -2.9133  -11.6279   18.7578 C   0  0  0  0  0  0  0  0  0  0  0  0
    4.5688  -10.1291   29.5758 C   0  0  0  0  0  0  0  0  0  0  0  0
    2.1008   -9.0410   29.1852 N   0  0  0  0  0  0  0  0  0  0  0  0
    3.4829  -10.5697   30.2091 N   0  0  0  0  0  0  0  0  0  0  0  0
   -0.3363   -6.1172   27.5628 C   0  0  0  0  0  0  0  0  0  0  0  0
    3.0331   -7.4400   27.6362 C   0  0  0  0  0  0  0  0  0  0  0  0
    5.4553   -8.5933   27.9644 C   0  0  0  0  0  0  0  0  0  0  0  0
   -2.3870  -12.8440   19.2512 C   0  0  0  0  0  0  0  0  0  0  0  0
    0.5331   -7.6964   16.2751 C   0  0  0  0  0  0  0  0  0  0  0  0
   -0.6740  -10.8737   18.0482 C   0  0  0  0  0  0  0  0  0  0  0  0
    5.6751  -10.5870   29.7637 O   0  0  0  0  0  0  0  0  0  0  0  0
    1.7612   -5.6483   26.7172 C   0  0  0  0  0  0  0  0  0  0  0  0
    0.2221   -9.8326   17.4055 C   0  0  0  0  0  0  0  0  0  0  0  0
    4.3850   -9.0730   28.6745 C   0  0  0  0  0  0  0  0  0  0  0  0
  1  7  4  0
  1 22  4  0
  2 17  4  0
  2 20  4  0
  2 28  4  0
  3  6  1  0
  3 19  1  0
  4 19  1  0
  4 26  1  0
  5 17  4  0
  5 18  4  0
  6 20  1  0
  6 26  1  0
  7 24  4  0
  8 15  4  0
  8 24  4  0
  9 14  4  0
  9 21  4  0
 10 12  4  0
 10 27  4  0
 11 12  4  0
 11 23  4  0
 13 23  4  0
 13 27  4  0
 14 20  4  0
 15 22  4  0
 16 18  4  0
 16 25  2  0
 16 28  4  0
 21 28  4  0
 24 27  1  0
M  END
$$$$

 Created by Python create_sdf_string function

 28 31  0  0  0  0  0  0  0  0999 V2000
   -1.0054  -13.0622   19.1198 C   0  0  0  0  0  0  0  0  0  0  0  0
    3.1478   -8.5360   28.5161 C   0  0  0  0  0  0  0  0  0  0  0  0
    0.5798   -7.1906   27.9330 C   0  0  0  0  0  0  0  0  0  0  0  0
    0.3978   -5.1561   26.6955 C   0  0  0  0  0  0  0  0  0  0  0  0
    2.3063  -10.0533   30.0125 C   0  0  0  0  0  0  0  0  0  0  0  0
    1.8591   -6.8254   27.4685 N   0  0  0  0  0  0  0  0  0  0  0  0
   -0.2167  -12.1055   18.5568 C   0  0  0  0  0  0  0  0  0  0  0  0
   -2.0661  -10.6994   18.1916 C   0  0  0  0  0  0  0  0  0  0  0  0
    5.2703   -7.5691   27.1123 C   0  0  0  0  0  0  0  0  0  0  0  0
    1.6204   -9.9887   17.2935 C   0  0  0  0  0  0  0  0  0  0  0  0
    1.8931   -7.9265   16.2047 C   0  0  0  0  0  0  0  0  0  0  0  0
    2.4396   -9.0801   16.7132 C   0  0  0  0  0  0  0  0  0  0  0  0
   -0.2575   -8.6234   16.8582 C   0  0  0  0  0  0  0  0  0  0  0  0
    4.0614   -7.0367   27.0106 N   0  0  0  0  0  0  0  0  0  0  0  0
   -2.9133  -11.6279   18.7578 C   0  0  0  0  0  0  0  0  0  0  0  0
    4.5688  -10.1291   29.5758 C   0  0  0  0  0  0  0  0  0  0  0  0
    2.1008   -9.0410   29.1852 N   0  0  0  0  0  0  0  0  0  0  0  0
    3.4829  -10.5697   30.2091 N   0  0  0  0  0  0  0  0  0  0  0  0
   -0.3363   -6.1172   27.5628 C   0  0  0  0  0  0  0  0  0  0  0  0
    3.0331   -7.4400   27.6362 C   0  0  0  0  0  0  0  0  0  0  0  0
    5.4553   -8.5933   27.9644 C   0  0  0  0  0  0  0  0  0  0  0  0
   -2.3870  -12.8440   19.2512 C   0  0  0  0  0  0  0  0  0  0  0  0
    0.5331   -7.6964   16.2751 C   0  0  0  0  0  0  0  0  0  0  0  0
   -0.6740  -10.8737   18.0482 C   0  0  0  0  0  0  0  0  0  0  0  0
    5.6751  -10.5870   29.7637 O   0  0  0  0  0  0  0  0  0  0  0  0
    1.7612   -5.6483   26.7172 C   0  0  0  0  0  0  0  0  0  0  0  0
    0.2221   -9.8326   17.4055 C   0  0  0  0  0  0  0  0  0  0  0  0
    4.3850   -9.0730   28.6745 C   0  0  0  0  0  0  0  0  0  0  0  0
  1  7  4  0
  1 22  4  0
  2 17  4  0
  2 20  4  0
  2 28  4  0
  3  6  1  0
  3 19  1  0
  4 19  1  0
  4 26  1  0
  5 17  4  0
  5 18  4  0
  6 20  1  0
  6 26  1  0
  7 24  4  0
  8 15  4  0
  8 24  4  0
  9 14  4  0
  9 21  4  0
 10 12  4  0
 10 27  4  0
 11 12  4  0
 11 23  4  0
 13 23  4  0
 13 27  4  0
 14 20  4  0
 15 22  4  0
 16 18  4  0
 16 25  2  0
 16 28  4  0
 21 28  4  0
 24 27  1  0
M  END
$$$$

 Created by Python create_sdf_string function

 28 31  0  0  0  0  0  0  0  0999 V2000
   -1.0054  -13.0622   19.1198 C   0  0  0  0  0  0  0  0  0  0  0  0
    3.1478   -8.5360   28.5161 C   0  0  0  0  0  0  0  0  0  0  0  0
    0.5798   -7.1906   27.9330 C   0  0  0  0  0  0  0  0  0  0  0  0
    0.3978   -5.1561   26.6955 C   0  0  0  0  0  0  0  0  0  0  0  0
    2.3063  -10.0533   30.0125 C   0  0  0  0  0  0  0  0  0  0  0  0
    1.8591   -6.8254   27.4685 N   0  0  0  0  0  0  0  0  0  0  0  0
   -0.2167  -12.1055   18.5568 C   0  0  0  0  0  0  0  0  0  0  0  0
   -2.0661  -10.6994   18.1916 C   0  0  0  0  0  0  0  0  0  0  0  0
    5.2703   -7.5691   27.1123 C   0  0  0  0  0  0  0  0  0  0  0  0
    1.6204   -9.9887   17.2935 C   0  0  0  0  0  0  0  0  0  0  0  0
    1.8931   -7.9265   16.2047 C   0  0  0  0  0  0  0  0  0  0  0  0
    2.4396   -9.0801   16.7132 C   0  0  0  0  0  0  0  0  0  0  0  0
   -0.2575   -8.6234   16.8582 C   0  0  0  0  0  0  0  0  0  0  0  0
    4.0614   -7.0367   27.0106 N   0  0  0  0  0  0  0  0  0  0  0  0
   -2.9133  -11.6279   18.7578 C   0  0  0  0  0  0  0  0  0  0  0  0
    4.5688  -10.1291   29.5758 C   0  0  0  0  0  0  0  0  0  0  0  0
    2.1008   -9.0410   29.1852 N   0  0  0  0  0  0  0  0  0  0  0  0
    3.4829  -10.5697   30.2091 N   0  0  0  0  0  0  0  0  0  0  0  0
   -0.3363   -6.1172   27.5628 C   0  0  0  0  0  0  0  0  0  0  0  0
    3.0331   -7.4400   27.6362 C   0  0  0  0  0  0  0  0  0  0  0  0
    5.4553   -8.5933   27.9644 C   0  0  0  0  0  0  0  0  0  0  0  0
   -2.3870  -12.8440   19.2512 C   0  0  0  0  0  0  0  0  0  0  0  0
    0.5331   -7.6964   16.2751 C   0  0  0  0  0  0  0  0  0  0  0  0
   -0.6740  -10.8737   18.0482 C   0  0  0  0  0  0  0  0  0  0  0  0
    5.6751  -10.5870   29.7637 O   0  0  0  0  0  0  0  0  0  0  0  0
    1.7612   -5.6483   26.7172 C   0  0  0  0  0  0  0  0  0  0  0  0
    0.2221   -9.8326   17.4055 C   0  0  0  0  0  0  0  0  0  0  0  0
    4.3850   -9.0730   28.6745 C   0  0  0  0  0  0  0  0  0  0  0  0
  1  7  4  0
  1 22  4  0
  2 17  4  0
  2 20  4  0
  2 28  4  0
  3  6  1  0
  3 19  1  0
  4 19  1  0
  4 26  1  0
  5 17  4  0
  5 18  4  0
  6 20  1  0
  6 26  1  0
  7 24  4  0
  8 15  4  0
  8 24  4  0
  9 14  4  0
  9 21  4  0
 10 12  4  0
 10 27  4  0
 11 12  4  0
 11 23  4  0
 13 23  4  0
 13 27  4  0
 14 20  4  0
 15 22  4  0
 16 18  4  0
 16 25  2  0
 16 28  4  0
 21 28  4  0
 24 27  1  0
M  END
$$$$

 Created by Python create_sdf_string function

 28 31  0  0  0  0  0  0  0  0999 V2000
   -1.0054  -13.0622   19.1198 C   0  0  0  0  0  0  0  0  0  0  0  0
    3.1478   -8.5360   28.5161 C   0  0  0  0  0  0  0  0  0  0  0  0
    0.5798   -7.1906   27.9330 C   0  0  0  0  0  0  0  0  0  0  0  0
    0.3978   -5.1561   26.6955 C   0  0  0  0  0  0  0  0  0  0  0  0
    2.3063  -10.0533   30.0125 C   0  0  0  0  0  0  0  0  0  0  0  0
    1.8591   -6.8254   27.4685 N   0  0  0  0  0  0  0  0  0  0  0  0
   -0.2167  -12.1055   18.5568 C   0  0  0  0  0  0  0  0  0  0  0  0
   -2.0661  -10.6994   18.1916 C   0  0  0  0  0  0  0  0  0  0  0  0
    5.2703   -7.5691   27.1123 C   0  0  0  0  0  0  0  0  0  0  0  0
    1.6204   -9.9887   17.2935 C   0  0  0  0  0  0  0  0  0  0  0  0
    1.8931   -7.9265   16.2047 C   0  0  0  0  0  0  0  0  0  0  0  0
    2.4396   -9.0801   16.7132 C   0  0  0  0  0  0  0  0  0  0  0  0
   -0.2575   -8.6234   16.8582 C   0  0  0  0  0  0  0  0  0  0  0  0
    4.0614   -7.0367   27.0106 N   0  0  0  0  0  0  0  0  0  0  0  0
   -2.9133  -11.6279   18.7578 C   0  0  0  0  0  0  0  0  0  0  0  0
    4.5688  -10.1291   29.5758 C   0  0  0  0  0  0  0  0  0  0  0  0
    2.1008   -9.0410   29.1852 N   0  0  0  0  0  0  0  0  0  0  0  0
    3.4829  -10.5697   30.2091 N   0  0  0  0  0  0  0  0  0  0  0  0
   -0.3363   -6.1172   27.5628 C   0  0  0  0  0  0  0  0  0  0  0  0
    3.0331   -7.4400   27.6362 C   0  0  0  0  0  0  0  0  0  0  0  0
    5.4553   -8.5933   27.9644 C   0  0  0  0  0  0  0  0  0  0  0  0
   -2.3870  -12.8440   19.2512 C   0  0  0  0  0  0  0  0  0  0  0  0
    0.5331   -7.6964   16.2751 C   0  0  0  0  0  0  0  0  0  0  0  0
   -0.6740  -10.8737   18.0482 C   0  0  0  0  0  0  0  0  0  0  0  0
    5.6751  -10.5870   29.7637 O   0  0  0  0  0  0  0  0  0  0  0  0
    1.7612   -5.6483   26.7172 C   0  0  0  0  0  0  0  0  0  0  0  0
    0.2221   -9.8326   17.4055 C   0  0  0  0  0  0  0  0  0  0  0  0
    4.3850   -9.0730   28.6745 C   0  0  0  0  0  0  0  0  0  0  0  0
  1  7  4  0
  1 22  4  0
  2 17  4  0
  2 20  4  0
  2 28  4  0
  3  6  1  0
  3 19  1  0
  4 19  1  0
  4 26  1  0
  5 17  4  0
  5 18  4  0
  6 20  1  0
  6 26  1  0
  7 24  4  0
  8 15  4  0
  8 24  4  0
  9 14  4  0
  9 21  4  0
 10 12  4  0
 10 27  4  0
 11 12  4  0
 11 23  4  0
 13 23  4  0
 13 27  4  0
 14 20  4  0
 15 22  4  0
 16 18  4  0
 16 25  2  0
 16 28  4  0
 21 28  4  0
 24 27  1  0
M  END
$$$$

 Created by Python create_sdf_string function

 28 31  0  0  0  0  0  0  0  0999 V2000
   -1.0054  -13.0622   19.1198 C   0  0  0  0  0  0  0  0  0  0  0  0
    3.1478   -8.5360   28.5161 C   0  0  0  0  0  0  0  0  0  0  0  0
    0.5798   -7.1906   27.9330 C   0  0  0  0  0  0  0  0  0  0  0  0
    0.3978   -5.1561   26.6955 C   0  0  0  0  0  0  0  0  0  0  0  0
    2.3063  -10.0533   30.0125 C   0  0  0  0  0  0  0  0  0  0  0  0
    1.8591   -6.8254   27.4685 N   0  0  0  0  0  0  0  0  0  0  0  0
   -0.2167  -12.1055   18.5568 C   0  0  0  0  0  0  0  0  0  0  0  0
   -2.0661  -10.6994   18.1916 C   0  0  0  0  0  0  0  0  0  0  0  0
    5.2703   -7.5691   27.1123 C   0  0  0  0  0  0  0  0  0  0  0  0
    1.6204   -9.9887   17.2935 C   0  0  0  0  0  0  0  0  0  0  0  0
    1.8931   -7.9265   16.2047 C   0  0  0  0  0  0  0  0  0  0  0  0
    2.4396   -9.0801   16.7132 C   0  0  0  0  0  0  0  0  0  0  0  0
   -0.2575   -8.6234   16.8582 C   0  0  0  0  0  0  0  0  0  0  0  0
    4.0614   -7.0367   27.0106 N   0  0  0  0  0  0  0  0  0  0  0  0
   -2.9133  -11.6279   18.7578 C   0  0  0  0  0  0  0  0  0  0  0  0
    4.5688  -10.1291   29.5758 C   0  0  0  0  0  0  0  0  0  0  0  0
    2.1008   -9.0410   29.1852 N   0  0  0  0  0  0  0  0  0  0  0  0
    3.4829  -10.5697   30.2091 N   0  0  0  0  0  0  0  0  0  0  0  0
   -0.3363   -6.1172   27.5628 C   0  0  0  0  0  0  0  0  0  0  0  0
    3.0331   -7.4400   27.6362 C   0  0  0  0  0  0  0  0  0  0  0  0
    5.4553   -8.5933   27.9644 C   0  0  0  0  0  0  0  0  0  0  0  0
   -2.3870  -12.8440   19.2512 C   0  0  0  0  0  0  0  0  0  0  0  0
    0.5331   -7.6964   16.2751 C   0  0  0  0  0  0  0  0  0  0  0  0
   -0.6740  -10.8737   18.0482 C   0  0  0  0  0  0  0  0  0  0  0  0
    5.6751  -10.5870   29.7637 O   0  0  0  0  0  0  0  0  0  0  0  0
    1.7612   -5.6483   26.7172 C   0  0  0  0  0  0  0  0  0  0  0  0
    0.2221   -9.8326   17.4055 C   0  0  0  0  0  0  0  0  0  0  0  0
    4.3850   -9.0730   28.6745 C   0  0  0  0  0  0  0  0  0  0  0  0
  1  7  4  0
  1 22  4  0
  2 17  4  0
  2 20  4  0
  2 28  4  0
  3  6  1  0
  3 19  1  0
  4 19  1  0
  4 26  1  0
  5 17  4  0
  5 18  4  0
  6 20  1  0
  6 26  1  0
  7 24  4  0
  8 15  4  0
  8 24  4  0
  9 14  4  0
  9 21  4  0
 10 12  4  0
 10 27  4  0
 11 12  4  0
 11 23  4  0
 13 23  4  0
 13 27  4  0
 14 20  4  0
 15 22  4  0
 16 18  4  0
 16 25  2  0
 16 28  4  0
 21 28  4  0
 24 27  1  0
M  END
$$$$

 Created by Python create_sdf_string function

 28 31  0  0  0  0  0  0  0  0999 V2000
   -1.0054  -13.0622   19.1198 C   0  0  0  0  0  0  0  0  0  0  0  0
    3.1478   -8.5360   28.5161 C   0  0  0  0  0  0  0  0  0  0  0  0
    0.5798   -7.1906   27.9330 C   0  0  0  0  0  0  0  0  0  0  0  0
    0.3978   -5.1561   26.6955 C   0  0  0  0  0  0  0  0  0  0  0  0
    2.3063  -10.0533   30.0125 C   0  0  0  0  0  0  0  0  0  0  0  0
    1.8591   -6.8254   27.4685 N   0  0  0  0  0  0  0  0  0  0  0  0
   -0.2167  -12.1055   18.5568 C   0  0  0  0  0  0  0  0  0  0  0  0
   -2.0661  -10.6994   18.1916 C   0  0  0  0  0  0  0  0  0  0  0  0
    5.2703   -7.5691   27.1123 C   0  0  0  0  0  0  0  0  0  0  0  0
    1.6204   -9.9887   17.2935 C   0  0  0  0  0  0  0  0  0  0  0  0
    1.8931   -7.9265   16.2047 C   0  0  0  0  0  0  0  0  0  0  0  0
    2.4396   -9.0801   16.7132 C   0  0  0  0  0  0  0  0  0  0  0  0
   -0.2575   -8.6234   16.8582 C   0  0  0  0  0  0  0  0  0  0  0  0
    4.0614   -7.0367   27.0106 N   0  0  0  0  0  0  0  0  0  0  0  0
   -2.9133  -11.6279   18.7578 C   0  0  0  0  0  0  0  0  0  0  0  0
    4.5688  -10.1291   29.5758 C   0  0  0  0  0  0  0  0  0  0  0  0
    2.1008   -9.0410   29.1852 N   0  0  0  0  0  0  0  0  0  0  0  0
    3.4829  -10.5697   30.2091 N   0  0  0  0  0  0  0  0  0  0  0  0
   -0.3363   -6.1172   27.5628 C   0  0  0  0  0  0  0  0  0  0  0  0
    3.0331   -7.4400   27.6362 C   0  0  0  0  0  0  0  0  0  0  0  0
    5.4553   -8.5933   27.9644 C   0  0  0  0  0  0  0  0  0  0  0  0
   -2.3870  -12.8440   19.2512 C   0  0  0  0  0  0  0  0  0  0  0  0
    0.5331   -7.6964   16.2751 C   0  0  0  0  0  0  0  0  0  0  0  0
   -0.6740  -10.8737   18.0482 C   0  0  0  0  0  0  0  0  0  0  0  0
    5.6751  -10.5870   29.7637 O   0  0  0  0  0  0  0  0  0  0  0  0
    1.7612   -5.6483   26.7172 C   0  0  0  0  0  0  0  0  0  0  0  0
    0.2221   -9.8326   17.4055 C   0  0  0  0  0  0  0  0  0  0  0  0
    4.3850   -9.0730   28.6745 C   0  0  0  0  0  0  0  0  0  0  0  0
  1  7  4  0
  1 22  4  0
  2 17  4  0
  2 20  4  0
  2 28  4  0
  3  6  1  0
  3 19  1  0
  4 19  1  0
  4 26  1  0
  5 17  4  0
  5 18  4  0
  6 20  1  0
  6 26  1  0
  7 24  4  0
  8 15  4  0
  8 24  4  0
  9 14  4  0
  9 21  4  0
 10 12  4  0
 10 27  4  0
 11 12  4  0
 11 23  4  0
 13 23  4  0
 13 27  4  0
 14 20  4  0
 15 22  4  0
 16 18  4  0
 16 25  2  0
 16 28  4  0
 21 28  4  0
 24 27  1  0
M  END
$$$$

 Created by Python create_sdf_string function

 28 31  0  0  0  0  0  0  0  0999 V2000
   -1.0054  -13.0622   19.1198 C   0  0  0  0  0  0  0  0  0  0  0  0
    3.1478   -8.5360   28.5161 C   0  0  0  0  0  0  0  0  0  0  0  0
    0.5798   -7.1906   27.9330 C   0  0  0  0  0  0  0  0  0  0  0  0
    0.3978   -5.1561   26.6955 C   0  0  0  0  0  0  0  0  0  0  0  0
    2.3063  -10.0533   30.0125 C   0  0  0  0  0  0  0  0  0  0  0  0
    1.8591   -6.8254   27.4685 N   0  0  0  0  0  0  0  0  0  0  0  0
   -0.2167  -12.1055   18.5568 C   0  0  0  0  0  0  0  0  0  0  0  0
   -2.0661  -10.6994   18.1916 C   0  0  0  0  0  0  0  0  0  0  0  0
    5.2703   -7.5691   27.1123 C   0  0  0  0  0  0  0  0  0  0  0  0
    1.6204   -9.9887   17.2935 C   0  0  0  0  0  0  0  0  0  0  0  0
    1.8931   -7.9265   16.2047 C   0  0  0  0  0  0  0  0  0  0  0  0
    2.4396   -9.0801   16.7132 C   0  0  0  0  0  0  0  0  0  0  0  0
   -0.2575   -8.6234   16.8582 C   0  0  0  0  0  0  0  0  0  0  0  0
    4.0614   -7.0367   27.0106 N   0  0  0  0  0  0  0  0  0  0  0  0
   -2.9133  -11.6279   18.7578 C   0  0  0  0  0  0  0  0  0  0  0  0
    4.5688  -10.1291   29.5758 C   0  0  0  0  0  0  0  0  0  0  0  0
    2.1008   -9.0410   29.1852 N   0  0  0  0  0  0  0  0  0  0  0  0
    3.4829  -10.5697   30.2091 N   0  0  0  0  0  0  0  0  0  0  0  0
   -0.3363   -6.1172   27.5628 C   0  0  0  0  0  0  0  0  0  0  0  0
    3.0331   -7.4400   27.6362 C   0  0  0  0  0  0  0  0  0  0  0  0
    5.4553   -8.5933   27.9644 C   0  0  0  0  0  0  0  0  0  0  0  0
   -2.3870  -12.8440   19.2512 C   0  0  0  0  0  0  0  0  0  0  0  0
    0.5331   -7.6964   16.2751 C   0  0  0  0  0  0  0  0  0  0  0  0
   -0.6740  -10.8737   18.0482 C   0  0  0  0  0  0  0  0  0  0  0  0
    5.6751  -10.5870   29.7637 O   0  0  0  0  0  0  0  0  0  0  0  0
    1.7612   -5.6483   26.7172 C   0  0  0  0  0  0  0  0  0  0  0  0
    0.2221   -9.8326   17.4055 C   0  0  0  0  0  0  0  0  0  0  0  0
    4.3850   -9.0730   28.6745 C   0  0  0  0  0  0  0  0  0  0  0  0
  1  7  4  0
  1 22  4  0
  2 17  4  0
  2 20  4  0
  2 28  4  0
  3  6  1  0
  3 19  1  0
  4 19  1  0
  4 26  1  0
  5 17  4  0
  5 18  4  0
  6 20  1  0
  6 26  1  0
  7 24  4  0
  8 15  4  0
  8 24  4  0
  9 14  4  0
  9 21  4  0
 10 12  4  0
 10 27  4  0
 11 12  4  0
 11 23  4  0
 13 23  4  0
 13 27  4  0
 14 20  4  0
 15 22  4  0
 16 18  4  0
 16 25  2  0
 16 28  4  0
 21 28  4  0
 24 27  1  0
M  END
$$$$

 Created by Python create_sdf_string function

 28 31  0  0  0  0  0  0  0  0999 V2000
   -1.0054  -13.0622   19.1198 C   0  0  0  0  0  0  0  0  0  0  0  0
    3.1478   -8.5360   28.5161 C   0  0  0  0  0  0  0  0  0  0  0  0
    0.5798   -7.1906   27.9330 C   0  0  0  0  0  0  0  0  0  0  0  0
    0.3978   -5.1561   26.6955 C   0  0  0  0  0  0  0  0  0  0  0  0
    2.3063  -10.0533   30.0125 C   0  0  0  0  0  0  0  0  0  0  0  0
    1.8591   -6.8254   27.4685 N   0  0  0  0  0  0  0  0  0  0  0  0
   -0.2167  -12.1055   18.5568 C   0  0  0  0  0  0  0  0  0  0  0  0
   -2.0661  -10.6994   18.1916 C   0  0  0  0  0  0  0  0  0  0  0  0
    5.2703   -7.5691   27.1123 C   0  0  0  0  0  0  0  0  0  0  0  0
    1.6204   -9.9887   17.2935 C   0  0  0  0  0  0  0  0  0  0  0  0
    1.8931   -7.9265   16.2047 C   0  0  0  0  0  0  0  0  0  0  0  0
    2.4396   -9.0801   16.7132 C   0  0  0  0  0  0  0  0  0  0  0  0
   -0.2575   -8.6234   16.8582 C   0  0  0  0  0  0  0  0  0  0  0  0
    4.0614   -7.0367   27.0106 N   0  0  0  0  0  0  0  0  0  0  0  0
   -2.9133  -11.6279   18.7578 C   0  0  0  0  0  0  0  0  0  0  0  0
    4.5688  -10.1291   29.5758 C   0  0  0  0  0  0  0  0  0  0  0  0
    2.1008   -9.0410   29.1852 N   0  0  0  0  0  0  0  0  0  0  0  0
    3.4829  -10.5697   30.2091 N   0  0  0  0  0  0  0  0  0  0  0  0
   -0.3363   -6.1172   27.5628 C   0  0  0  0  0  0  0  0  0  0  0  0
    3.0331   -7.4400   27.6362 C   0  0  0  0  0  0  0  0  0  0  0  0
    5.4553   -8.5933   27.9644 C   0  0  0  0  0  0  0  0  0  0  0  0
   -2.3870  -12.8440   19.2512 C   0  0  0  0  0  0  0  0  0  0  0  0
    0.5331   -7.6964   16.2751 C   0  0  0  0  0  0  0  0  0  0  0  0
   -0.6740  -10.8737   18.0482 C   0  0  0  0  0  0  0  0  0  0  0  0
    5.6751  -10.5870   29.7637 O   0  0  0  0  0  0  0  0  0  0  0  0
    1.7612   -5.6483   26.7172 C   0  0  0  0  0  0  0  0  0  0  0  0
    0.2221   -9.8326   17.4055 C   0  0  0  0  0  0  0  0  0  0  0  0
    4.3850   -9.0730   28.6745 C   0  0  0  0  0  0  0  0  0  0  0  0
  1  7  4  0
  1 22  4  0
  2 17  4  0
  2 20  4  0
  2 28  4  0
  3  6  1  0
  3 19  1  0
  4 19  1  0
  4 26  1  0
  5 17  4  0
  5 18  4  0
  6 20  1  0
  6 26  1  0
  7 24  4  0
  8 15  4  0
  8 24  4  0
  9 14  4  0
  9 21  4  0
 10 12  4  0
 10 27  4  0
 11 12  4  0
 11 23  4  0
 13 23  4  0
 13 27  4  0
 14 20  4  0
 15 22  4  0
 16 18  4  0
 16 25  2  0
 16 28  4  0
 21 28  4  0
 24 27  1  0
M  END
$$$$

 Created by Python create_sdf_string function

 28 31  0  0  0  0  0  0  0  0999 V2000
   -1.0054  -13.0622   19.1198 C   0  0  0  0  0  0  0  0  0  0  0  0
    3.1478   -8.5360   28.5161 C   0  0  0  0  0  0  0  0  0  0  0  0
    0.5798   -7.1906   27.9330 C   0  0  0  0  0  0  0  0  0  0  0  0
    0.3978   -5.1561   26.6955 C   0  0  0  0  0  0  0  0  0  0  0  0
    2.3063  -10.0533   30.0125 C   0  0  0  0  0  0  0  0  0  0  0  0
    1.8591   -6.8254   27.4685 N   0  0  0  0  0  0  0  0  0  0  0  0
   -0.2167  -12.1055   18.5568 C   0  0  0  0  0  0  0  0  0  0  0  0
   -2.0661  -10.6994   18.1916 C   0  0  0  0  0  0  0  0  0  0  0  0
    5.2703   -7.5691   27.1123 C   0  0  0  0  0  0  0  0  0  0  0  0
    1.6204   -9.9887   17.2935 C   0  0  0  0  0  0  0  0  0  0  0  0
    1.8931   -7.9265   16.2047 C   0  0  0  0  0  0  0  0  0  0  0  0
    2.4396   -9.0801   16.7132 C   0  0  0  0  0  0  0  0  0  0  0  0
   -0.2575   -8.6234   16.8582 C   0  0  0  0  0  0  0  0  0  0  0  0
    4.0614   -7.0367   27.0106 N   0  0  0  0  0  0  0  0  0  0  0  0
   -2.9133  -11.6279   18.7578 C   0  0  0  0  0  0  0  0  0  0  0  0
    4.5688  -10.1291   29.5758 C   0  0  0  0  0  0  0  0  0  0  0  0
    2.1008   -9.0410   29.1852 N   0  0  0  0  0  0  0  0  0  0  0  0
    3.4829  -10.5697   30.2091 N   0  0  0  0  0  0  0  0  0  0  0  0
   -0.3363   -6.1172   27.5628 C   0  0  0  0  0  0  0  0  0  0  0  0
    3.0331   -7.4400   27.6362 C   0  0  0  0  0  0  0  0  0  0  0  0
    5.4553   -8.5933   27.9644 C   0  0  0  0  0  0  0  0  0  0  0  0
   -2.3870  -12.8440   19.2512 C   0  0  0  0  0  0  0  0  0  0  0  0
    0.5331   -7.6964   16.2751 C   0  0  0  0  0  0  0  0  0  0  0  0
   -0.6740  -10.8737   18.0482 C   0  0  0  0  0  0  0  0  0  0  0  0
    5.6751  -10.5870   29.7637 O   0  0  0  0  0  0  0  0  0  0  0  0
    1.7612   -5.6483   26.7172 C   0  0  0  0  0  0  0  0  0  0  0  0
    0.2221   -9.8326   17.4055 C   0  0  0  0  0  0  0  0  0  0  0  0
    4.3850   -9.0730   28.6745 C   0  0  0  0  0  0  0  0  0  0  0  0
  1  7  4  0
  1 22  4  0
  2 17  4  0
  2 20  4  0
  2 28  4  0
  3  6  1  0
  3 19  1  0
  4 19  1  0
  4 26  1  0
  5 17  4  0
  5 18  4  0
  6 20  1  0
  6 26  1  0
  7 24  4  0
  8 15  4  0
  8 24  4  0
  9 14  4  0
  9 21  4  0
 10 12  4  0
 10 27  4  0
 11 12  4  0
 11 23  4  0
 13 23  4  0
 13 27  4  0
 14 20  4  0
 15 22  4  0
 16 18  4  0
 16 25  2  0
 16 28  4  0
 21 28  4  0
 24 27  1  0
M  END
$$$$

 Created by Python create_sdf_string function

 28 31  0  0  0  0  0  0  0  0999 V2000
   -1.0054  -13.0622   19.1198 C   0  0  0  0  0  0  0  0  0  0  0  0
    3.1478   -8.5360   28.5161 C   0  0  0  0  0  0  0  0  0  0  0  0
    0.5798   -7.1906   27.9330 C   0  0  0  0  0  0  0  0  0  0  0  0
    0.3978   -5.1561   26.6955 C   0  0  0  0  0  0  0  0  0  0  0  0
    2.3063  -10.0533   30.0125 C   0  0  0  0  0  0  0  0  0  0  0  0
    1.8591   -6.8254   27.4685 N   0  0  0  0  0  0  0  0  0  0  0  0
   -0.2167  -12.1055   18.5568 C   0  0  0  0  0  0  0  0  0  0  0  0
   -2.0661  -10.6994   18.1916 C   0  0  0  0  0  0  0  0  0  0  0  0
    5.2703   -7.5691   27.1123 C   0  0  0  0  0  0  0  0  0  0  0  0
    1.6204   -9.9887   17.2935 C   0  0  0  0  0  0  0  0  0  0  0  0
    1.8931   -7.9265   16.2047 C   0  0  0  0  0  0  0  0  0  0  0  0
    2.4396   -9.0801   16.7132 C   0  0  0  0  0  0  0  0  0  0  0  0
   -0.2575   -8.6234   16.8582 C   0  0  0  0  0  0  0  0  0  0  0  0
    4.0614   -7.0367   27.0106 N   0  0  0  0  0  0  0  0  0  0  0  0
   -2.9133  -11.6279   18.7578 C   0  0  0  0  0  0  0  0  0  0  0  0
    4.5688  -10.1291   29.5758 C   0  0  0  0  0  0  0  0  0  0  0  0
    2.1008   -9.0410   29.1852 N   0  0  0  0  0  0  0  0  0  0  0  0
    3.4829  -10.5697   30.2091 N   0  0  0  0  0  0  0  0  0  0  0  0
   -0.3363   -6.1172   27.5628 C   0  0  0  0  0  0  0  0  0  0  0  0
    3.0331   -7.4400   27.6362 C   0  0  0  0  0  0  0  0  0  0  0  0
    5.4553   -8.5933   27.9644 C   0  0  0  0  0  0  0  0  0  0  0  0
   -2.3870  -12.8440   19.2512 C   0  0  0  0  0  0  0  0  0  0  0  0
    0.5331   -7.6964   16.2751 C   0  0  0  0  0  0  0  0  0  0  0  0
   -0.6740  -10.8737   18.0482 C   0  0  0  0  0  0  0  0  0  0  0  0
    5.6751  -10.5870   29.7637 O   0  0  0  0  0  0  0  0  0  0  0  0
    1.7612   -5.6483   26.7172 C   0  0  0  0  0  0  0  0  0  0  0  0
    0.2221   -9.8326   17.4055 C   0  0  0  0  0  0  0  0  0  0  0  0
    4.3850   -9.0730   28.6745 C   0  0  0  0  0  0  0  0  0  0  0  0
  1  7  4  0
  1 22  4  0
  2 17  4  0
  2 20  4  0
  2 28  4  0
  3  6  1  0
  3 19  1  0
  4 19  1  0
  4 26  1  0
  5 17  4  0
  5 18  4  0
  6 20  1  0
  6 26  1  0
  7 24  4  0
  8 15  4  0
  8 24  4  0
  9 14  4  0
  9 21  4  0
 10 12  4  0
 10 27  4  0
 11 12  4  0
 11 23  4  0
 13 23  4  0
 13 27  4  0
 14 20  4  0
 15 22  4  0
 16 18  4  0
 16 25  2  0
 16 28  4  0
 21 28  4  0
 24 27  1  0
M  END
$$$$

 Created by Python create_sdf_string function

 28 31  0  0  0  0  0  0  0  0999 V2000
   -1.0054  -13.0622   19.1198 C   0  0  0  0  0  0  0  0  0  0  0  0
    3.1478   -8.5360   28.5161 C   0  0  0  0  0  0  0  0  0  0  0  0
    0.5798   -7.1906   27.9330 C   0  0  0  0  0  0  0  0  0  0  0  0
    0.3978   -5.1561   26.6955 C   0  0  0  0  0  0  0  0  0  0  0  0
    2.3063  -10.0533   30.0125 C   0  0  0  0  0  0  0  0  0  0  0  0
    1.8591   -6.8254   27.4685 N   0  0  0  0  0  0  0  0  0  0  0  0
   -0.2167  -12.1055   18.5568 C   0  0  0  0  0  0  0  0  0  0  0  0
   -2.0661  -10.6994   18.1916 C   0  0  0  0  0  0  0  0  0  0  0  0
    5.2703   -7.5691   27.1123 C   0  0  0  0  0  0  0  0  0  0  0  0
    1.6204   -9.9887   17.2935 C   0  0  0  0  0  0  0  0  0  0  0  0
    1.8931   -7.9265   16.2047 C   0  0  0  0  0  0  0  0  0  0  0  0
    2.4396   -9.0801   16.7132 C   0  0  0  0  0  0  0  0  0  0  0  0
   -0.2575   -8.6234   16.8582 C   0  0  0  0  0  0  0  0  0  0  0  0
    4.0614   -7.0367   27.0106 N   0  0  0  0  0  0  0  0  0  0  0  0
   -2.9133  -11.6279   18.7578 C   0  0  0  0  0  0  0  0  0  0  0  0
    4.5688  -10.1291   29.5758 C   0  0  0  0  0  0  0  0  0  0  0  0
    2.1008   -9.0410   29.1852 N   0  0  0  0  0  0  0  0  0  0  0  0
    3.4829  -10.5697   30.2091 N   0  0  0  0  0  0  0  0  0  0  0  0
   -0.3363   -6.1172   27.5628 C   0  0  0  0  0  0  0  0  0  0  0  0
    3.0331   -7.4400   27.6362 C   0  0  0  0  0  0  0  0  0  0  0  0
    5.4553   -8.5933   27.9644 C   0  0  0  0  0  0  0  0  0  0  0  0
   -2.3870  -12.8440   19.2512 C   0  0  0  0  0  0  0  0  0  0  0  0
    0.5331   -7.6964   16.2751 C   0  0  0  0  0  0  0  0  0  0  0  0
   -0.6740  -10.8737   18.0482 C   0  0  0  0  0  0  0  0  0  0  0  0
    5.6751  -10.5870   29.7637 O   0  0  0  0  0  0  0  0  0  0  0  0
    1.7612   -5.6483   26.7172 C   0  0  0  0  0  0  0  0  0  0  0  0
    0.2221   -9.8326   17.4055 C   0  0  0  0  0  0  0  0  0  0  0  0
    4.3850   -9.0730   28.6745 C   0  0  0  0  0  0  0  0  0  0  0  0
  1  7  4  0
  1 22  4  0
  2 17  4  0
  2 20  4  0
  2 28  4  0
  3  6  1  0
  3 19  1  0
  4 19  1  0
  4 26  1  0
  5 17  4  0
  5 18  4  0
  6 20  1  0
  6 26  1  0
  7 24  4  0
  8 15  4  0
  8 24  4  0
  9 14  4  0
  9 21  4  0
 10 12  4  0
 10 27  4  0
 11 12  4  0
 11 23  4  0
 13 23  4  0
 13 27  4  0
 14 20  4  0
 15 22  4  0
 16 18  4  0
 16 25  2  0
 16 28  4  0
 21 28  4  0
 24 27  1  0
M  END
$$$$

 Created by Python create_sdf_string function

 28 31  0  0  0  0  0  0  0  0999 V2000
   -1.0054  -13.0622   19.1198 C   0  0  0  0  0  0  0  0  0  0  0  0
    3.1478   -8.5360   28.5161 C   0  0  0  0  0  0  0  0  0  0  0  0
    0.5798   -7.1906   27.9330 C   0  0  0  0  0  0  0  0  0  0  0  0
    0.3978   -5.1561   26.6955 C   0  0  0  0  0  0  0  0  0  0  0  0
    2.3063  -10.0533   30.0125 C   0  0  0  0  0  0  0  0  0  0  0  0
    1.8591   -6.8254   27.4685 N   0  0  0  0  0  0  0  0  0  0  0  0
   -0.2167  -12.1055   18.5568 C   0  0  0  0  0  0  0  0  0  0  0  0
   -2.0661  -10.6994   18.1916 C   0  0  0  0  0  0  0  0  0  0  0  0
    5.2703   -7.5691   27.1123 C   0  0  0  0  0  0  0  0  0  0  0  0
    1.6204   -9.9887   17.2935 C   0  0  0  0  0  0  0  0  0  0  0  0
    1.8931   -7.9265   16.2047 C   0  0  0  0  0  0  0  0  0  0  0  0
    2.4396   -9.0801   16.7132 C   0  0  0  0  0  0  0  0  0  0  0  0
   -0.2575   -8.6234   16.8582 C   0  0  0  0  0  0  0  0  0  0  0  0
    4.0614   -7.0367   27.0106 N   0  0  0  0  0  0  0  0  0  0  0  0
   -2.9133  -11.6279   18.7578 C   0  0  0  0  0  0  0  0  0  0  0  0
    4.5688  -10.1291   29.5758 C   0  0  0  0  0  0  0  0  0  0  0  0
    2.1008   -9.0410   29.1852 N   0  0  0  0  0  0  0  0  0  0  0  0
    3.4829  -10.5697   30.2091 N   0  0  0  0  0  0  0  0  0  0  0  0
   -0.3363   -6.1172   27.5628 C   0  0  0  0  0  0  0  0  0  0  0  0
    3.0331   -7.4400   27.6362 C   0  0  0  0  0  0  0  0  0  0  0  0
    5.4553   -8.5933   27.9644 C   0  0  0  0  0  0  0  0  0  0  0  0
   -2.3870  -12.8440   19.2512 C   0  0  0  0  0  0  0  0  0  0  0  0
    0.5331   -7.6964   16.2751 C   0  0  0  0  0  0  0  0  0  0  0  0
   -0.6740  -10.8737   18.0482 C   0  0  0  0  0  0  0  0  0  0  0  0
    5.6751  -10.5870   29.7637 O   0  0  0  0  0  0  0  0  0  0  0  0
    1.7612   -5.6483   26.7172 C   0  0  0  0  0  0  0  0  0  0  0  0
    0.2221   -9.8326   17.4055 C   0  0  0  0  0  0  0  0  0  0  0  0
    4.3850   -9.0730   28.6745 C   0  0  0  0  0  0  0  0  0  0  0  0
  1  7  4  0
  1 22  4  0
  2 17  4  0
  2 20  4  0
  2 28  4  0
  3  6  1  0
  3 19  1  0
  4 19  1  0
  4 26  1  0
  5 17  4  0
  5 18  4  0
  6 20  1  0
  6 26  1  0
  7 24  4  0
  8 15  4  0
  8 24  4  0
  9 14  4  0
  9 21  4  0
 10 12  4  0
 10 27  4  0
 11 12  4  0
 11 23  4  0
 13 23  4  0
 13 27  4  0
 14 20  4  0
 15 22  4  0
 16 18  4  0
 16 25  2  0
 16 28  4  0
 21 28  4  0
 24 27  1  0
M  END
$$$$

 Created by Python create_sdf_string function

 28 31  0  0  0  0  0  0  0  0999 V2000
   -1.0054  -13.0622   19.1198 C   0  0  0  0  0  0  0  0  0  0  0  0
    3.1478   -8.5360   28.5161 C   0  0  0  0  0  0  0  0  0  0  0  0
    0.5798   -7.1906   27.9330 C   0  0  0  0  0  0  0  0  0  0  0  0
    0.3978   -5.1561   26.6955 C   0  0  0  0  0  0  0  0  0  0  0  0
    2.3063  -10.0533   30.0125 C   0  0  0  0  0  0  0  0  0  0  0  0
    1.8591   -6.8254   27.4685 N   0  0  0  0  0  0  0  0  0  0  0  0
   -0.2167  -12.1055   18.5568 C   0  0  0  0  0  0  0  0  0  0  0  0
   -2.0661  -10.6994   18.1916 C   0  0  0  0  0  0  0  0  0  0  0  0
    5.2703   -7.5691   27.1123 C   0  0  0  0  0  0  0  0  0  0  0  0
    1.6204   -9.9887   17.2935 C   0  0  0  0  0  0  0  0  0  0  0  0
    1.8931   -7.9265   16.2047 C   0  0  0  0  0  0  0  0  0  0  0  0
    2.4396   -9.0801   16.7132 C   0  0  0  0  0  0  0  0  0  0  0  0
   -0.2575   -8.6234   16.8582 C   0  0  0  0  0  0  0  0  0  0  0  0
    4.0614   -7.0367   27.0106 N   0  0  0  0  0  0  0  0  0  0  0  0
   -2.9133  -11.6279   18.7578 C   0  0  0  0  0  0  0  0  0  0  0  0
    4.5688  -10.1291   29.5758 C   0  0  0  0  0  0  0  0  0  0  0  0
    2.1008   -9.0410   29.1852 N   0  0  0  0  0  0  0  0  0  0  0  0
    3.4829  -10.5697   30.2091 N   0  0  0  0  0  0  0  0  0  0  0  0
   -0.3363   -6.1172   27.5628 C   0  0  0  0  0  0  0  0  0  0  0  0
    3.0331   -7.4400   27.6362 C   0  0  0  0  0  0  0  0  0  0  0  0
    5.4553   -8.5933   27.9644 C   0  0  0  0  0  0  0  0  0  0  0  0
   -2.3870  -12.8440   19.2512 C   0  0  0  0  0  0  0  0  0  0  0  0
    0.5331   -7.6964   16.2751 C   0  0  0  0  0  0  0  0  0  0  0  0
   -0.6740  -10.8737   18.0482 C   0  0  0  0  0  0  0  0  0  0  0  0
    5.6751  -10.5870   29.7637 O   0  0  0  0  0  0  0  0  0  0  0  0
    1.7612   -5.6483   26.7172 C   0  0  0  0  0  0  0  0  0  0  0  0
    0.2221   -9.8326   17.4055 C   0  0  0  0  0  0  0  0  0  0  0  0
    4.3850   -9.0730   28.6745 C   0  0  0  0  0  0  0  0  0  0  0  0
  1  7  4  0
  1 22  4  0
  2 17  4  0
  2 20  4  0
  2 28  4  0
  3  6  1  0
  3 19  1  0
  4 19  1  0
  4 26  1  0
  5 17  4  0
  5 18  4  0
  6 20  1  0
  6 26  1  0
  7 24  4  0
  8 15  4  0
  8 24  4  0
  9 14  4  0
  9 21  4  0
 10 12  4  0
 10 27  4  0
 11 12  4  0
 11 23  4  0
 13 23  4  0
 13 27  4  0
 14 20  4  0
 15 22  4  0
 16 18  4  0
 16 25  2  0
 16 28  4  0
 21 28  4  0
 24 27  1  0
M  END
$$$$

 Created by Python create_sdf_string function

 28 31  0  0  0  0  0  0  0  0999 V2000
   -1.0054  -13.0622   19.1198 C   0  0  0  0  0  0  0  0  0  0  0  0
    3.1478   -8.5360   28.5161 C   0  0  0  0  0  0  0  0  0  0  0  0
    0.5798   -7.1906   27.9330 C   0  0  0  0  0  0  0  0  0  0  0  0
    0.3978   -5.1561   26.6955 C   0  0  0  0  0  0  0  0  0  0  0  0
    2.3063  -10.0533   30.0125 C   0  0  0  0  0  0  0  0  0  0  0  0
    1.8591   -6.8254   27.4685 N   0  0  0  0  0  0  0  0  0  0  0  0
   -0.2167  -12.1055   18.5568 C   0  0  0  0  0  0  0  0  0  0  0  0
   -2.0661  -10.6994   18.1916 C   0  0  0  0  0  0  0  0  0  0  0  0
    5.2703   -7.5691   27.1123 C   0  0  0  0  0  0  0  0  0  0  0  0
    1.6204   -9.9887   17.2935 C   0  0  0  0  0  0  0  0  0  0  0  0
    1.8931   -7.9265   16.2047 C   0  0  0  0  0  0  0  0  0  0  0  0
    2.4396   -9.0801   16.7132 C   0  0  0  0  0  0  0  0  0  0  0  0
   -0.2575   -8.6234   16.8582 C   0  0  0  0  0  0  0  0  0  0  0  0
    4.0614   -7.0367   27.0106 N   0  0  0  0  0  0  0  0  0  0  0  0
   -2.9133  -11.6279   18.7578 C   0  0  0  0  0  0  0  0  0  0  0  0
    4.5688  -10.1291   29.5758 C   0  0  0  0  0  0  0  0  0  0  0  0
    2.1008   -9.0410   29.1852 N   0  0  0  0  0  0  0  0  0  0  0  0
    3.4829  -10.5697   30.2091 N   0  0  0  0  0  0  0  0  0  0  0  0
   -0.3363   -6.1172   27.5628 C   0  0  0  0  0  0  0  0  0  0  0  0
    3.0331   -7.4400   27.6362 C   0  0  0  0  0  0  0  0  0  0  0  0
    5.4553   -8.5933   27.9644 C   0  0  0  0  0  0  0  0  0  0  0  0
   -2.3870  -12.8440   19.2512 C   0  0  0  0  0  0  0  0  0  0  0  0
    0.5331   -7.6964   16.2751 C   0  0  0  0  0  0  0  0  0  0  0  0
   -0.6740  -10.8737   18.0482 C   0  0  0  0  0  0  0  0  0  0  0  0
    5.6751  -10.5870   29.7637 O   0  0  0  0  0  0  0  0  0  0  0  0
    1.7612   -5.6483   26.7172 C   0  0  0  0  0  0  0  0  0  0  0  0
    0.2221   -9.8326   17.4055 C   0  0  0  0  0  0  0  0  0  0  0  0
    4.3850   -9.0730   28.6745 C   0  0  0  0  0  0  0  0  0  0  0  0
  1  7  4  0
  1 22  4  0
  2 17  4  0
  2 20  4  0
  2 28  4  0
  3  6  1  0
  3 19  1  0
  4 19  1  0
  4 26  1  0
  5 17  4  0
  5 18  4  0
  6 20  1  0
  6 26  1  0
  7 24  4  0
  8 15  4  0
  8 24  4  0
  9 14  4  0
  9 21  4  0
 10 12  4  0
 10 27  4  0
 11 12  4  0
 11 23  4  0
 13 23  4  0
 13 27  4  0
 14 20  4  0
 15 22  4  0
 16 18  4  0
 16 25  2  0
 16 28  4  0
 21 28  4  0
 24 27  1  0
M  END
$$$$

 Created by Python create_sdf_string function

 28 31  0  0  0  0  0  0  0  0999 V2000
   -1.0054  -13.0622   19.1198 C   0  0  0  0  0  0  0  0  0  0  0  0
    3.1478   -8.5360   28.5161 C   0  0  0  0  0  0  0  0  0  0  0  0
    0.5798   -7.1906   27.9330 C   0  0  0  0  0  0  0  0  0  0  0  0
    0.3978   -5.1561   26.6955 C   0  0  0  0  0  0  0  0  0  0  0  0
    2.3063  -10.0533   30.0125 C   0  0  0  0  0  0  0  0  0  0  0  0
    1.8591   -6.8254   27.4685 N   0  0  0  0  0  0  0  0  0  0  0  0
   -0.2167  -12.1055   18.5568 C   0  0  0  0  0  0  0  0  0  0  0  0
   -2.0661  -10.6994   18.1916 C   0  0  0  0  0  0  0  0  0  0  0  0
    5.2703   -7.5691   27.1123 C   0  0  0  0  0  0  0  0  0  0  0  0
    1.6204   -9.9887   17.2935 C   0  0  0  0  0  0  0  0  0  0  0  0
    1.8931   -7.9265   16.2047 C   0  0  0  0  0  0  0  0  0  0  0  0
    2.4396   -9.0801   16.7132 C   0  0  0  0  0  0  0  0  0  0  0  0
   -0.2575   -8.6234   16.8582 C   0  0  0  0  0  0  0  0  0  0  0  0
    4.0614   -7.0367   27.0106 N   0  0  0  0  0  0  0  0  0  0  0  0
   -2.9133  -11.6279   18.7578 C   0  0  0  0  0  0  0  0  0  0  0  0
    4.5688  -10.1291   29.5758 C   0  0  0  0  0  0  0  0  0  0  0  0
    2.1008   -9.0410   29.1852 N   0  0  0  0  0  0  0  0  0  0  0  0
    3.4829  -10.5697   30.2091 N   0  0  0  0  0  0  0  0  0  0  0  0
   -0.3363   -6.1172   27.5628 C   0  0  0  0  0  0  0  0  0  0  0  0
    3.0331   -7.4400   27.6362 C   0  0  0  0  0  0  0  0  0  0  0  0
    5.4553   -8.5933   27.9644 C   0  0  0  0  0  0  0  0  0  0  0  0
   -2.3870  -12.8440   19.2512 C   0  0  0  0  0  0  0  0  0  0  0  0
    0.5331   -7.6964   16.2751 C   0  0  0  0  0  0  0  0  0  0  0  0
   -0.6740  -10.8737   18.0482 C   0  0  0  0  0  0  0  0  0  0  0  0
    5.6751  -10.5870   29.7637 O   0  0  0  0  0  0  0  0  0  0  0  0
    1.7612   -5.6483   26.7172 C   0  0  0  0  0  0  0  0  0  0  0  0
    0.2221   -9.8326   17.4055 C   0  0  0  0  0  0  0  0  0  0  0  0
    4.3850   -9.0730   28.6745 C   0  0  0  0  0  0  0  0  0  0  0  0
  1  7  4  0
  1 22  4  0
  2 17  4  0
  2 20  4  0
  2 28  4  0
  3  6  1  0
  3 19  1  0
  4 19  1  0
  4 26  1  0
  5 17  4  0
  5 18  4  0
  6 20  1  0
  6 26  1  0
  7 24  4  0
  8 15  4  0
  8 24  4  0
  9 14  4  0
  9 21  4  0
 10 12  4  0
 10 27  4  0
 11 12  4  0
 11 23  4  0
 13 23  4  0
 13 27  4  0
 14 20  4  0
 15 22  4  0
 16 18  4  0
 16 25  2  0
 16 28  4  0
 21 28  4  0
 24 27  1  0
M  END
$$$$

 Created by Python create_sdf_string function

 28 31  0  0  0  0  0  0  0  0999 V2000
   -1.0054  -13.0622   19.1198 C   0  0  0  0  0  0  0  0  0  0  0  0
    3.1478   -8.5360   28.5161 C   0  0  0  0  0  0  0  0  0  0  0  0
    0.5798   -7.1906   27.9330 C   0  0  0  0  0  0  0  0  0  0  0  0
    0.3978   -5.1561   26.6955 C   0  0  0  0  0  0  0  0  0  0  0  0
    2.3063  -10.0533   30.0125 C   0  0  0  0  0  0  0  0  0  0  0  0
    1.8591   -6.8254   27.4685 N   0  0  0  0  0  0  0  0  0  0  0  0
   -0.2167  -12.1055   18.5568 C   0  0  0  0  0  0  0  0  0  0  0  0
   -2.0661  -10.6994   18.1916 C   0  0  0  0  0  0  0  0  0  0  0  0
    5.2703   -7.5691   27.1123 C   0  0  0  0  0  0  0  0  0  0  0  0
    1.6204   -9.9887   17.2935 C   0  0  0  0  0  0  0  0  0  0  0  0
    1.8931   -7.9265   16.2047 C   0  0  0  0  0  0  0  0  0  0  0  0
    2.4396   -9.0801   16.7132 C   0  0  0  0  0  0  0  0  0  0  0  0
   -0.2575   -8.6234   16.8582 C   0  0  0  0  0  0  0  0  0  0  0  0
    4.0614   -7.0367   27.0106 N   0  0  0  0  0  0  0  0  0  0  0  0
   -2.9133  -11.6279   18.7578 C   0  0  0  0  0  0  0  0  0  0  0  0
    4.5688  -10.1291   29.5758 C   0  0  0  0  0  0  0  0  0  0  0  0
    2.1008   -9.0410   29.1852 N   0  0  0  0  0  0  0  0  0  0  0  0
    3.4829  -10.5697   30.2091 N   0  0  0  0  0  0  0  0  0  0  0  0
   -0.3363   -6.1172   27.5628 C   0  0  0  0  0  0  0  0  0  0  0  0
    3.0331   -7.4400   27.6362 C   0  0  0  0  0  0  0  0  0  0  0  0
    5.4553   -8.5933   27.9644 C   0  0  0  0  0  0  0  0  0  0  0  0
   -2.3870  -12.8440   19.2512 C   0  0  0  0  0  0  0  0  0  0  0  0
    0.5331   -7.6964   16.2751 C   0  0  0  0  0  0  0  0  0  0  0  0
   -0.6740  -10.8737   18.0482 C   0  0  0  0  0  0  0  0  0  0  0  0
    5.6751  -10.5870   29.7637 O   0  0  0  0  0  0  0  0  0  0  0  0
    1.7612   -5.6483   26.7172 C   0  0  0  0  0  0  0  0  0  0  0  0
    0.2221   -9.8326   17.4055 C   0  0  0  0  0  0  0  0  0  0  0  0
    4.3850   -9.0730   28.6745 C   0  0  0  0  0  0  0  0  0  0  0  0
  1  7  4  0
  1 22  4  0
  2 17  4  0
  2 20  4  0
  2 28  4  0
  3  6  1  0
  3 19  1  0
  4 19  1  0
  4 26  1  0
  5 17  4  0
  5 18  4  0
  6 20  1  0
  6 26  1  0
  7 24  4  0
  8 15  4  0
  8 24  4  0
  9 14  4  0
  9 21  4  0
 10 12  4  0
 10 27  4  0
 11 12  4  0
 11 23  4  0
 13 23  4  0
 13 27  4  0
 14 20  4  0
 15 22  4  0
 16 18  4  0
 16 25  2  0
 16 28  4  0
 21 28  4  0
 24 27  1  0
M  END
$$$$

 Created by Python create_sdf_string function

 28 31  0  0  0  0  0  0  0  0999 V2000
   -1.0054  -13.0622   19.1198 C   0  0  0  0  0  0  0  0  0  0  0  0
    3.1478   -8.5360   28.5161 C   0  0  0  0  0  0  0  0  0  0  0  0
    0.5798   -7.1906   27.9330 C   0  0  0  0  0  0  0  0  0  0  0  0
    0.3978   -5.1561   26.6955 C   0  0  0  0  0  0  0  0  0  0  0  0
    2.3063  -10.0533   30.0125 C   0  0  0  0  0  0  0  0  0  0  0  0
    1.8591   -6.8254   27.4685 N   0  0  0  0  0  0  0  0  0  0  0  0
   -0.2167  -12.1055   18.5568 C   0  0  0  0  0  0  0  0  0  0  0  0
   -2.0661  -10.6994   18.1916 C   0  0  0  0  0  0  0  0  0  0  0  0
    5.2703   -7.5691   27.1123 C   0  0  0  0  0  0  0  0  0  0  0  0
    1.6204   -9.9887   17.2935 C   0  0  0  0  0  0  0  0  0  0  0  0
    1.8931   -7.9265   16.2047 C   0  0  0  0  0  0  0  0  0  0  0  0
    2.4396   -9.0801   16.7132 C   0  0  0  0  0  0  0  0  0  0  0  0
   -0.2575   -8.6234   16.8582 C   0  0  0  0  0  0  0  0  0  0  0  0
    4.0614   -7.0367   27.0106 N   0  0  0  0  0  0  0  0  0  0  0  0
   -2.9133  -11.6279   18.7578 C   0  0  0  0  0  0  0  0  0  0  0  0
    4.5688  -10.1291   29.5758 C   0  0  0  0  0  0  0  0  0  0  0  0
    2.1008   -9.0410   29.1852 N   0  0  0  0  0  0  0  0  0  0  0  0
    3.4829  -10.5697   30.2091 N   0  0  0  0  0  0  0  0  0  0  0  0
   -0.3363   -6.1172   27.5628 C   0  0  0  0  0  0  0  0  0  0  0  0
    3.0331   -7.4400   27.6362 C   0  0  0  0  0  0  0  0  0  0  0  0
    5.4553   -8.5933   27.9644 C   0  0  0  0  0  0  0  0  0  0  0  0
   -2.3870  -12.8440   19.2512 C   0  0  0  0  0  0  0  0  0  0  0  0
    0.5331   -7.6964   16.2751 C   0  0  0  0  0  0  0  0  0  0  0  0
   -0.6740  -10.8737   18.0482 C   0  0  0  0  0  0  0  0  0  0  0  0
    5.6751  -10.5870   29.7637 O   0  0  0  0  0  0  0  0  0  0  0  0
    1.7612   -5.6483   26.7172 C   0  0  0  0  0  0  0  0  0  0  0  0
    0.2221   -9.8326   17.4055 C   0  0  0  0  0  0  0  0  0  0  0  0
    4.3850   -9.0730   28.6745 C   0  0  0  0  0  0  0  0  0  0  0  0
  1  7  4  0
  1 22  4  0
  2 17  4  0
  2 20  4  0
  2 28  4  0
  3  6  1  0
  3 19  1  0
  4 19  1  0
  4 26  1  0
  5 17  4  0
  5 18  4  0
  6 20  1  0
  6 26  1  0
  7 24  4  0
  8 15  4  0
  8 24  4  0
  9 14  4  0
  9 21  4  0
 10 12  4  0
 10 27  4  0
 11 12  4  0
 11 23  4  0
 13 23  4  0
 13 27  4  0
 14 20  4  0
 15 22  4  0
 16 18  4  0
 16 25  2  0
 16 28  4  0
 21 28  4  0
 24 27  1  0
M  END
$$$$

 Created by Python create_sdf_string function

 28 31  0  0  0  0  0  0  0  0999 V2000
   -1.0054  -13.0622   19.1198 C   0  0  0  0  0  0  0  0  0  0  0  0
    3.1478   -8.5360   28.5161 C   0  0  0  0  0  0  0  0  0  0  0  0
    0.5798   -7.1906   27.9330 C   0  0  0  0  0  0  0  0  0  0  0  0
    0.3978   -5.1561   26.6955 C   0  0  0  0  0  0  0  0  0  0  0  0
    2.3063  -10.0533   30.0125 C   0  0  0  0  0  0  0  0  0  0  0  0
    1.8591   -6.8254   27.4685 N   0  0  0  0  0  0  0  0  0  0  0  0
   -0.2167  -12.1055   18.5568 C   0  0  0  0  0  0  0  0  0  0  0  0
   -2.0661  -10.6994   18.1916 C   0  0  0  0  0  0  0  0  0  0  0  0
    5.2703   -7.5691   27.1123 C   0  0  0  0  0  0  0  0  0  0  0  0
    1.6204   -9.9887   17.2935 C   0  0  0  0  0  0  0  0  0  0  0  0
    1.8931   -7.9265   16.2047 C   0  0  0  0  0  0  0  0  0  0  0  0
    2.4396   -9.0801   16.7132 C   0  0  0  0  0  0  0  0  0  0  0  0
   -0.2575   -8.6234   16.8582 C   0  0  0  0  0  0  0  0  0  0  0  0
    4.0614   -7.0367   27.0106 N   0  0  0  0  0  0  0  0  0  0  0  0
   -2.9133  -11.6279   18.7578 C   0  0  0  0  0  0  0  0  0  0  0  0
    4.5688  -10.1291   29.5758 C   0  0  0  0  0  0  0  0  0  0  0  0
    2.1008   -9.0410   29.1852 N   0  0  0  0  0  0  0  0  0  0  0  0
    3.4829  -10.5697   30.2091 N   0  0  0  0  0  0  0  0  0  0  0  0
   -0.3363   -6.1172   27.5628 C   0  0  0  0  0  0  0  0  0  0  0  0
    3.0331   -7.4400   27.6362 C   0  0  0  0  0  0  0  0  0  0  0  0
    5.4553   -8.5933   27.9644 C   0  0  0  0  0  0  0  0  0  0  0  0
   -2.3870  -12.8440   19.2512 C   0  0  0  0  0  0  0  0  0  0  0  0
    0.5331   -7.6964   16.2751 C   0  0  0  0  0  0  0  0  0  0  0  0
   -0.6740  -10.8737   18.0482 C   0  0  0  0  0  0  0  0  0  0  0  0
    5.6751  -10.5870   29.7637 O   0  0  0  0  0  0  0  0  0  0  0  0
    1.7612   -5.6483   26.7172 C   0  0  0  0  0  0  0  0  0  0  0  0
    0.2221   -9.8326   17.4055 C   0  0  0  0  0  0  0  0  0  0  0  0
    4.3850   -9.0730   28.6745 C   0  0  0  0  0  0  0  0  0  0  0  0
  1  7  4  0
  1 22  4  0
  2 17  4  0
  2 20  4  0
  2 28  4  0
  3  6  1  0
  3 19  1  0
  4 19  1  0
  4 26  1  0
  5 17  4  0
  5 18  4  0
  6 20  1  0
  6 26  1  0
  7 24  4  0
  8 15  4  0
  8 24  4  0
  9 14  4  0
  9 21  4  0
 10 12  4  0
 10 27  4  0
 11 12  4  0
 11 23  4  0
 13 23  4  0
 13 27  4  0
 14 20  4  0
 15 22  4  0
 16 18  4  0
 16 25  2  0
 16 28  4  0
 21 28  4  0
 24 27  1  0
M  END
$$$$

 Created by Python create_sdf_string function

 28 31  0  0  0  0  0  0  0  0999 V2000
   -1.0054  -13.0622   19.1198 C   0  0  0  0  0  0  0  0  0  0  0  0
    3.1478   -8.5360   28.5161 C   0  0  0  0  0  0  0  0  0  0  0  0
    0.5798   -7.1906   27.9330 C   0  0  0  0  0  0  0  0  0  0  0  0
    0.3978   -5.1561   26.6955 C   0  0  0  0  0  0  0  0  0  0  0  0
    2.3063  -10.0533   30.0125 C   0  0  0  0  0  0  0  0  0  0  0  0
    1.8591   -6.8254   27.4685 N   0  0  0  0  0  0  0  0  0  0  0  0
   -0.2167  -12.1055   18.5568 C   0  0  0  0  0  0  0  0  0  0  0  0
   -2.0661  -10.6994   18.1916 C   0  0  0  0  0  0  0  0  0  0  0  0
    5.2703   -7.5691   27.1123 C   0  0  0  0  0  0  0  0  0  0  0  0
    1.6204   -9.9887   17.2935 C   0  0  0  0  0  0  0  0  0  0  0  0
    1.8931   -7.9265   16.2047 C   0  0  0  0  0  0  0  0  0  0  0  0
    2.4396   -9.0801   16.7132 C   0  0  0  0  0  0  0  0  0  0  0  0
   -0.2575   -8.6234   16.8582 C   0  0  0  0  0  0  0  0  0  0  0  0
    4.0614   -7.0367   27.0106 N   0  0  0  0  0  0  0  0  0  0  0  0
   -2.9133  -11.6279   18.7578 C   0  0  0  0  0  0  0  0  0  0  0  0
    4.5688  -10.1291   29.5758 C   0  0  0  0  0  0  0  0  0  0  0  0
    2.1008   -9.0410   29.1852 N   0  0  0  0  0  0  0  0  0  0  0  0
    3.4829  -10.5697   30.2091 N   0  0  0  0  0  0  0  0  0  0  0  0
   -0.3363   -6.1172   27.5628 C   0  0  0  0  0  0  0  0  0  0  0  0
    3.0331   -7.4400   27.6362 C   0  0  0  0  0  0  0  0  0  0  0  0
    5.4553   -8.5933   27.9644 C   0  0  0  0  0  0  0  0  0  0  0  0
   -2.3870  -12.8440   19.2512 C   0  0  0  0  0  0  0  0  0  0  0  0
    0.5331   -7.6964   16.2751 C   0  0  0  0  0  0  0  0  0  0  0  0
   -0.6740  -10.8737   18.0482 C   0  0  0  0  0  0  0  0  0  0  0  0
    5.6751  -10.5870   29.7637 O   0  0  0  0  0  0  0  0  0  0  0  0
    1.7612   -5.6483   26.7172 C   0  0  0  0  0  0  0  0  0  0  0  0
    0.2221   -9.8326   17.4055 C   0  0  0  0  0  0  0  0  0  0  0  0
    4.3850   -9.0730   28.6745 C   0  0  0  0  0  0  0  0  0  0  0  0
  1  7  4  0
  1 22  4  0
  2 17  4  0
  2 20  4  0
  2 28  4  0
  3  6  1  0
  3 19  1  0
  4 19  1  0
  4 26  1  0
  5 17  4  0
  5 18  4  0
  6 20  1  0
  6 26  1  0
  7 24  4  0
  8 15  4  0
  8 24  4  0
  9 14  4  0
  9 21  4  0
 10 12  4  0
 10 27  4  0
 11 12  4  0
 11 23  4  0
 13 23  4  0
 13 27  4  0
 14 20  4  0
 15 22  4  0
 16 18  4  0
 16 25  2  0
 16 28  4  0
 21 28  4  0
 24 27  1  0
M  END
$$$$

 Created by Python create_sdf_string function

 28 31  0  0  0  0  0  0  0  0999 V2000
   -1.0054  -13.0622   19.1198 C   0  0  0  0  0  0  0  0  0  0  0  0
    3.1478   -8.5360   28.5161 C   0  0  0  0  0  0  0  0  0  0  0  0
    0.5798   -7.1906   27.9330 C   0  0  0  0  0  0  0  0  0  0  0  0
    0.3978   -5.1561   26.6955 C   0  0  0  0  0  0  0  0  0  0  0  0
    2.3063  -10.0533   30.0125 C   0  0  0  0  0  0  0  0  0  0  0  0
    1.8591   -6.8254   27.4685 N   0  0  0  0  0  0  0  0  0  0  0  0
   -0.2167  -12.1055   18.5568 C   0  0  0  0  0  0  0  0  0  0  0  0
   -2.0661  -10.6994   18.1916 C   0  0  0  0  0  0  0  0  0  0  0  0
    5.2703   -7.5691   27.1123 C   0  0  0  0  0  0  0  0  0  0  0  0
    1.6204   -9.9887   17.2935 C   0  0  0  0  0  0  0  0  0  0  0  0
    1.8931   -7.9265   16.2047 C   0  0  0  0  0  0  0  0  0  0  0  0
    2.4396   -9.0801   16.7132 C   0  0  0  0  0  0  0  0  0  0  0  0
   -0.2575   -8.6234   16.8582 C   0  0  0  0  0  0  0  0  0  0  0  0
    4.0614   -7.0367   27.0106 N   0  0  0  0  0  0  0  0  0  0  0  0
   -2.9133  -11.6279   18.7578 C   0  0  0  0  0  0  0  0  0  0  0  0
    4.5688  -10.1291   29.5758 C   0  0  0  0  0  0  0  0  0  0  0  0
    2.1008   -9.0410   29.1852 N   0  0  0  0  0  0  0  0  0  0  0  0
    3.4829  -10.5697   30.2091 N   0  0  0  0  0  0  0  0  0  0  0  0
   -0.3363   -6.1172   27.5628 C   0  0  0  0  0  0  0  0  0  0  0  0
    3.0331   -7.4400   27.6362 C   0  0  0  0  0  0  0  0  0  0  0  0
    5.4553   -8.5933   27.9644 C   0  0  0  0  0  0  0  0  0  0  0  0
   -2.3870  -12.8440   19.2512 C   0  0  0  0  0  0  0  0  0  0  0  0
    0.5331   -7.6964   16.2751 C   0  0  0  0  0  0  0  0  0  0  0  0
   -0.6740  -10.8737   18.0482 C   0  0  0  0  0  0  0  0  0  0  0  0
    5.6751  -10.5870   29.7637 O   0  0  0  0  0  0  0  0  0  0  0  0
    1.7612   -5.6483   26.7172 C   0  0  0  0  0  0  0  0  0  0  0  0
    0.2221   -9.8326   17.4055 C   0  0  0  0  0  0  0  0  0  0  0  0
    4.3850   -9.0730   28.6745 C   0  0  0  0  0  0  0  0  0  0  0  0
  1  7  4  0
  1 22  4  0
  2 17  4  0
  2 20  4  0
  2 28  4  0
  3  6  1  0
  3 19  1  0
  4 19  1  0
  4 26  1  0
  5 17  4  0
  5 18  4  0
  6 20  1  0
  6 26  1  0
  7 24  4  0
  8 15  4  0
  8 24  4  0
  9 14  4  0
  9 21  4  0
 10 12  4  0
 10 27  4  0
 11 12  4  0
 11 23  4  0
 13 23  4  0
 13 27  4  0
 14 20  4  0
 15 22  4  0
 16 18  4  0
 16 25  2  0
 16 28  4  0
 21 28  4  0
 24 27  1  0
M  END
$$$$

 Created by Python create_sdf_string function

 28 31  0  0  0  0  0  0  0  0999 V2000
   -1.0054  -13.0622   19.1198 C   0  0  0  0  0  0  0  0  0  0  0  0
    3.1478   -8.5360   28.5161 C   0  0  0  0  0  0  0  0  0  0  0  0
    0.5798   -7.1906   27.9330 C   0  0  0  0  0  0  0  0  0  0  0  0
    0.3978   -5.1561   26.6955 C   0  0  0  0  0  0  0  0  0  0  0  0
    2.3063  -10.0533   30.0125 C   0  0  0  0  0  0  0  0  0  0  0  0
    1.8591   -6.8254   27.4685 N   0  0  0  0  0  0  0  0  0  0  0  0
   -0.2167  -12.1055   18.5568 C   0  0  0  0  0  0  0  0  0  0  0  0
   -2.0661  -10.6994   18.1916 C   0  0  0  0  0  0  0  0  0  0  0  0
    5.2703   -7.5691   27.1123 C   0  0  0  0  0  0  0  0  0  0  0  0
    1.6204   -9.9887   17.2935 C   0  0  0  0  0  0  0  0  0  0  0  0
    1.8931   -7.9265   16.2047 C   0  0  0  0  0  0  0  0  0  0  0  0
    2.4396   -9.0801   16.7132 C   0  0  0  0  0  0  0  0  0  0  0  0
   -0.2575   -8.6234   16.8582 C   0  0  0  0  0  0  0  0  0  0  0  0
    4.0614   -7.0367   27.0106 N   0  0  0  0  0  0  0  0  0  0  0  0
   -2.9133  -11.6279   18.7578 C   0  0  0  0  0  0  0  0  0  0  0  0
    4.5688  -10.1291   29.5758 C   0  0  0  0  0  0  0  0  0  0  0  0
    2.1008   -9.0410   29.1852 N   0  0  0  0  0  0  0  0  0  0  0  0
    3.4829  -10.5697   30.2091 N   0  0  0  0  0  0  0  0  0  0  0  0
   -0.3363   -6.1172   27.5628 C   0  0  0  0  0  0  0  0  0  0  0  0
    3.0331   -7.4400   27.6362 C   0  0  0  0  0  0  0  0  0  0  0  0
    5.4553   -8.5933   27.9644 C   0  0  0  0  0  0  0  0  0  0  0  0
   -2.3870  -12.8440   19.2512 C   0  0  0  0  0  0  0  0  0  0  0  0
    0.5331   -7.6964   16.2751 C   0  0  0  0  0  0  0  0  0  0  0  0
   -0.6740  -10.8737   18.0482 C   0  0  0  0  0  0  0  0  0  0  0  0
    5.6751  -10.5870   29.7637 O   0  0  0  0  0  0  0  0  0  0  0  0
    1.7612   -5.6483   26.7172 C   0  0  0  0  0  0  0  0  0  0  0  0
    0.2221   -9.8326   17.4055 C   0  0  0  0  0  0  0  0  0  0  0  0
    4.3850   -9.0730   28.6745 C   0  0  0  0  0  0  0  0  0  0  0  0
  1  7  4  0
  1 22  4  0
  2 17  4  0
  2 20  4  0
  2 28  4  0
  3  6  1  0
  3 19  1  0
  4 19  1  0
  4 26  1  0
  5 17  4  0
  5 18  4  0
  6 20  1  0
  6 26  1  0
  7 24  4  0
  8 15  4  0
  8 24  4  0
  9 14  4  0
  9 21  4  0
 10 12  4  0
 10 27  4  0
 11 12  4  0
 11 23  4  0
 13 23  4  0
 13 27  4  0
 14 20  4  0
 15 22  4  0
 16 18  4  0
 16 25  2  0
 16 28  4  0
 21 28  4  0
 24 27  1  0
M  END
$$$$

 Created by Python create_sdf_string function

 28 31  0  0  0  0  0  0  0  0999 V2000
   -1.0054  -13.0622   19.1198 C   0  0  0  0  0  0  0  0  0  0  0  0
    3.1478   -8.5360   28.5161 C   0  0  0  0  0  0  0  0  0  0  0  0
    0.5798   -7.1906   27.9330 C   0  0  0  0  0  0  0  0  0  0  0  0
    0.3978   -5.1561   26.6955 C   0  0  0  0  0  0  0  0  0  0  0  0
    2.3063  -10.0533   30.0125 C   0  0  0  0  0  0  0  0  0  0  0  0
    1.8591   -6.8254   27.4685 N   0  0  0  0  0  0  0  0  0  0  0  0
   -0.2167  -12.1055   18.5568 C   0  0  0  0  0  0  0  0  0  0  0  0
   -2.0661  -10.6994   18.1916 C   0  0  0  0  0  0  0  0  0  0  0  0
    5.2703   -7.5691   27.1123 C   0  0  0  0  0  0  0  0  0  0  0  0
    1.6204   -9.9887   17.2935 C   0  0  0  0  0  0  0  0  0  0  0  0
    1.8931   -7.9265   16.2047 C   0  0  0  0  0  0  0  0  0  0  0  0
    2.4396   -9.0801   16.7132 C   0  0  0  0  0  0  0  0  0  0  0  0
   -0.2575   -8.6234   16.8582 C   0  0  0  0  0  0  0  0  0  0  0  0
    4.0614   -7.0367   27.0106 N   0  0  0  0  0  0  0  0  0  0  0  0
   -2.9133  -11.6279   18.7578 C   0  0  0  0  0  0  0  0  0  0  0  0
    4.5688  -10.1291   29.5758 C   0  0  0  0  0  0  0  0  0  0  0  0
    2.1008   -9.0410   29.1852 N   0  0  0  0  0  0  0  0  0  0  0  0
    3.4829  -10.5697   30.2091 N   0  0  0  0  0  0  0  0  0  0  0  0
   -0.3363   -6.1172   27.5628 C   0  0  0  0  0  0  0  0  0  0  0  0
    3.0331   -7.4400   27.6362 C   0  0  0  0  0  0  0  0  0  0  0  0
    5.4553   -8.5933   27.9644 C   0  0  0  0  0  0  0  0  0  0  0  0
   -2.3870  -12.8440   19.2512 C   0  0  0  0  0  0  0  0  0  0  0  0
    0.5331   -7.6964   16.2751 C   0  0  0  0  0  0  0  0  0  0  0  0
   -0.6740  -10.8737   18.0482 C   0  0  0  0  0  0  0  0  0  0  0  0
    5.6751  -10.5870   29.7637 O   0  0  0  0  0  0  0  0  0  0  0  0
    1.7612   -5.6483   26.7172 C   0  0  0  0  0  0  0  0  0  0  0  0
    0.2221   -9.8326   17.4055 C   0  0  0  0  0  0  0  0  0  0  0  0
    4.3850   -9.0730   28.6745 C   0  0  0  0  0  0  0  0  0  0  0  0
  1  7  4  0
  1 22  4  0
  2 17  4  0
  2 20  4  0
  2 28  4  0
  3  6  1  0
  3 19  1  0
  4 19  1  0
  4 26  1  0
  5 17  4  0
  5 18  4  0
  6 20  1  0
  6 26  1  0
  7 24  4  0
  8 15  4  0
  8 24  4  0
  9 14  4  0
  9 21  4  0
 10 12  4  0
 10 27  4  0
 11 12  4  0
 11 23  4  0
 13 23  4  0
 13 27  4  0
 14 20  4  0
 15 22  4  0
 16 18  4  0
 16 25  2  0
 16 28  4  0
 21 28  4  0
 24 27  1  0
M  END
$$$$

 Created by Python create_sdf_string function

 28 31  0  0  0  0  0  0  0  0999 V2000
   -1.0054  -13.0622   19.1198 C   0  0  0  0  0  0  0  0  0  0  0  0
    3.1478   -8.5360   28.5161 C   0  0  0  0  0  0  0  0  0  0  0  0
    0.5798   -7.1906   27.9330 C   0  0  0  0  0  0  0  0  0  0  0  0
    0.3978   -5.1561   26.6955 C   0  0  0  0  0  0  0  0  0  0  0  0
    2.3063  -10.0533   30.0125 C   0  0  0  0  0  0  0  0  0  0  0  0
    1.8591   -6.8254   27.4685 N   0  0  0  0  0  0  0  0  0  0  0  0
   -0.2167  -12.1055   18.5568 C   0  0  0  0  0  0  0  0  0  0  0  0
   -2.0661  -10.6994   18.1916 C   0  0  0  0  0  0  0  0  0  0  0  0
    5.2703   -7.5691   27.1123 C   0  0  0  0  0  0  0  0  0  0  0  0
    1.6204   -9.9887   17.2935 C   0  0  0  0  0  0  0  0  0  0  0  0
    1.8931   -7.9265   16.2047 C   0  0  0  0  0  0  0  0  0  0  0  0
    2.4396   -9.0801   16.7132 C   0  0  0  0  0  0  0  0  0  0  0  0
   -0.2575   -8.6234   16.8582 C   0  0  0  0  0  0  0  0  0  0  0  0
    4.0614   -7.0367   27.0106 N   0  0  0  0  0  0  0  0  0  0  0  0
   -2.9133  -11.6279   18.7578 C   0  0  0  0  0  0  0  0  0  0  0  0
    4.5688  -10.1291   29.5758 C   0  0  0  0  0  0  0  0  0  0  0  0
    2.1008   -9.0410   29.1852 N   0  0  0  0  0  0  0  0  0  0  0  0
    3.4829  -10.5697   30.2091 N   0  0  0  0  0  0  0  0  0  0  0  0
   -0.3363   -6.1172   27.5628 C   0  0  0  0  0  0  0  0  0  0  0  0
    3.0331   -7.4400   27.6362 C   0  0  0  0  0  0  0  0  0  0  0  0
    5.4553   -8.5933   27.9644 C   0  0  0  0  0  0  0  0  0  0  0  0
   -2.3870  -12.8440   19.2512 C   0  0  0  0  0  0  0  0  0  0  0  0
    0.5331   -7.6964   16.2751 C   0  0  0  0  0  0  0  0  0  0  0  0
   -0.6740  -10.8737   18.0482 C   0  0  0  0  0  0  0  0  0  0  0  0
    5.6751  -10.5870   29.7637 O   0  0  0  0  0  0  0  0  0  0  0  0
    1.7612   -5.6483   26.7172 C   0  0  0  0  0  0  0  0  0  0  0  0
    0.2221   -9.8326   17.4055 C   0  0  0  0  0  0  0  0  0  0  0  0
    4.3850   -9.0730   28.6745 C   0  0  0  0  0  0  0  0  0  0  0  0
  1  7  4  0
  1 22  4  0
  2 17  4  0
  2 20  4  0
  2 28  4  0
  3  6  1  0
  3 19  1  0
  4 19  1  0
  4 26  1  0
  5 17  4  0
  5 18  4  0
  6 20  1  0
  6 26  1  0
  7 24  4  0
  8 15  4  0
  8 24  4  0
  9 14  4  0
  9 21  4  0
 10 12  4  0
 10 27  4  0
 11 12  4  0
 11 23  4  0
 13 23  4  0
 13 27  4  0
 14 20  4  0
 15 22  4  0
 16 18  4  0
 16 25  2  0
 16 28  4  0
 21 28  4  0
 24 27  1  0
M  END
$$$$

 Created by Python create_sdf_string function

 28 31  0  0  0  0  0  0  0  0999 V2000
   -1.0054  -13.0622   19.1198 C   0  0  0  0  0  0  0  0  0  0  0  0
    3.1478   -8.5360   28.5161 C   0  0  0  0  0  0  0  0  0  0  0  0
    0.5798   -7.1906   27.9330 C   0  0  0  0  0  0  0  0  0  0  0  0
    0.3978   -5.1561   26.6955 C   0  0  0  0  0  0  0  0  0  0  0  0
    2.3063  -10.0533   30.0125 C   0  0  0  0  0  0  0  0  0  0  0  0
    1.8591   -6.8254   27.4685 N   0  0  0  0  0  0  0  0  0  0  0  0
   -0.2167  -12.1055   18.5568 C   0  0  0  0  0  0  0  0  0  0  0  0
   -2.0661  -10.6994   18.1916 C   0  0  0  0  0  0  0  0  0  0  0  0
    5.2703   -7.5691   27.1123 C   0  0  0  0  0  0  0  0  0  0  0  0
    1.6204   -9.9887   17.2935 C   0  0  0  0  0  0  0  0  0  0  0  0
    1.8931   -7.9265   16.2047 C   0  0  0  0  0  0  0  0  0  0  0  0
    2.4396   -9.0801   16.7132 C   0  0  0  0  0  0  0  0  0  0  0  0
   -0.2575   -8.6234   16.8582 C   0  0  0  0  0  0  0  0  0  0  0  0
    4.0614   -7.0367   27.0106 N   0  0  0  0  0  0  0  0  0  0  0  0
   -2.9133  -11.6279   18.7578 C   0  0  0  0  0  0  0  0  0  0  0  0
    4.5688  -10.1291   29.5758 C   0  0  0  0  0  0  0  0  0  0  0  0
    2.1008   -9.0410   29.1852 N   0  0  0  0  0  0  0  0  0  0  0  0
    3.4829  -10.5697   30.2091 N   0  0  0  0  0  0  0  0  0  0  0  0
   -0.3363   -6.1172   27.5628 C   0  0  0  0  0  0  0  0  0  0  0  0
    3.0331   -7.4400   27.6362 C   0  0  0  0  0  0  0  0  0  0  0  0
    5.4553   -8.5933   27.9644 C   0  0  0  0  0  0  0  0  0  0  0  0
   -2.3870  -12.8440   19.2512 C   0  0  0  0  0  0  0  0  0  0  0  0
    0.5331   -7.6964   16.2751 C   0  0  0  0  0  0  0  0  0  0  0  0
   -0.6740  -10.8737   18.0482 C   0  0  0  0  0  0  0  0  0  0  0  0
    5.6751  -10.5870   29.7637 O   0  0  0  0  0  0  0  0  0  0  0  0
    1.7612   -5.6483   26.7172 C   0  0  0  0  0  0  0  0  0  0  0  0
    0.2221   -9.8326   17.4055 C   0  0  0  0  0  0  0  0  0  0  0  0
    4.3850   -9.0730   28.6745 C   0  0  0  0  0  0  0  0  0  0  0  0
  1  7  4  0
  1 22  4  0
  2 17  4  0
  2 20  4  0
  2 28  4  0
  3  6  1  0
  3 19  1  0
  4 19  1  0
  4 26  1  0
  5 17  4  0
  5 18  4  0
  6 20  1  0
  6 26  1  0
  7 24  4  0
  8 15  4  0
  8 24  4  0
  9 14  4  0
  9 21  4  0
 10 12  4  0
 10 27  4  0
 11 12  4  0
 11 23  4  0
 13 23  4  0
 13 27  4  0
 14 20  4  0
 15 22  4  0
 16 18  4  0
 16 25  2  0
 16 28  4  0
 21 28  4  0
 24 27  1  0
M  END
$$$$

 Created by Python create_sdf_string function

 28 31  0  0  0  0  0  0  0  0999 V2000
   -1.0054  -13.0622   19.1198 C   0  0  0  0  0  0  0  0  0  0  0  0
    3.1478   -8.5360   28.5161 C   0  0  0  0  0  0  0  0  0  0  0  0
    0.5798   -7.1906   27.9330 C   0  0  0  0  0  0  0  0  0  0  0  0
    0.3978   -5.1561   26.6955 C   0  0  0  0  0  0  0  0  0  0  0  0
    2.3063  -10.0533   30.0125 C   0  0  0  0  0  0  0  0  0  0  0  0
    1.8591   -6.8254   27.4685 N   0  0  0  0  0  0  0  0  0  0  0  0
   -0.2167  -12.1055   18.5568 C   0  0  0  0  0  0  0  0  0  0  0  0
   -2.0661  -10.6994   18.1916 C   0  0  0  0  0  0  0  0  0  0  0  0
    5.2703   -7.5691   27.1123 C   0  0  0  0  0  0  0  0  0  0  0  0
    1.6204   -9.9887   17.2935 C   0  0  0  0  0  0  0  0  0  0  0  0
    1.8931   -7.9265   16.2047 C   0  0  0  0  0  0  0  0  0  0  0  0
    2.4396   -9.0801   16.7132 C   0  0  0  0  0  0  0  0  0  0  0  0
   -0.2575   -8.6234   16.8582 C   0  0  0  0  0  0  0  0  0  0  0  0
    4.0614   -7.0367   27.0106 N   0  0  0  0  0  0  0  0  0  0  0  0
   -2.9133  -11.6279   18.7578 C   0  0  0  0  0  0  0  0  0  0  0  0
    4.5688  -10.1291   29.5758 C   0  0  0  0  0  0  0  0  0  0  0  0
    2.1008   -9.0410   29.1852 N   0  0  0  0  0  0  0  0  0  0  0  0
    3.4829  -10.5697   30.2091 N   0  0  0  0  0  0  0  0  0  0  0  0
   -0.3363   -6.1172   27.5628 C   0  0  0  0  0  0  0  0  0  0  0  0
    3.0331   -7.4400   27.6362 C   0  0  0  0  0  0  0  0  0  0  0  0
    5.4553   -8.5933   27.9644 C   0  0  0  0  0  0  0  0  0  0  0  0
   -2.3870  -12.8440   19.2512 C   0  0  0  0  0  0  0  0  0  0  0  0
    0.5331   -7.6964   16.2751 C   0  0  0  0  0  0  0  0  0  0  0  0
   -0.6740  -10.8737   18.0482 C   0  0  0  0  0  0  0  0  0  0  0  0
    5.6751  -10.5870   29.7637 O   0  0  0  0  0  0  0  0  0  0  0  0
    1.7612   -5.6483   26.7172 C   0  0  0  0  0  0  0  0  0  0  0  0
    0.2221   -9.8326   17.4055 C   0  0  0  0  0  0  0  0  0  0  0  0
    4.3850   -9.0730   28.6745 C   0  0  0  0  0  0  0  0  0  0  0  0
  1  7  4  0
  1 22  4  0
  2 17  4  0
  2 20  4  0
  2 28  4  0
  3  6  1  0
  3 19  1  0
  4 19  1  0
  4 26  1  0
  5 17  4  0
  5 18  4  0
  6 20  1  0
  6 26  1  0
  7 24  4  0
  8 15  4  0
  8 24  4  0
  9 14  4  0
  9 21  4  0
 10 12  4  0
 10 27  4  0
 11 12  4  0
 11 23  4  0
 13 23  4  0
 13 27  4  0
 14 20  4  0
 15 22  4  0
 16 18  4  0
 16 25  2  0
 16 28  4  0
 21 28  4  0
 24 27  1  0
M  END
$$$$

 Created by Python create_sdf_string function

 28 31  0  0  0  0  0  0  0  0999 V2000
   -1.0054  -13.0622   19.1198 C   0  0  0  0  0  0  0  0  0  0  0  0
    3.1478   -8.5360   28.5161 C   0  0  0  0  0  0  0  0  0  0  0  0
    0.5798   -7.1906   27.9330 C   0  0  0  0  0  0  0  0  0  0  0  0
    0.3978   -5.1561   26.6955 C   0  0  0  0  0  0  0  0  0  0  0  0
    2.3063  -10.0533   30.0125 C   0  0  0  0  0  0  0  0  0  0  0  0
    1.8591   -6.8254   27.4685 N   0  0  0  0  0  0  0  0  0  0  0  0
   -0.2167  -12.1055   18.5568 C   0  0  0  0  0  0  0  0  0  0  0  0
   -2.0661  -10.6994   18.1916 C   0  0  0  0  0  0  0  0  0  0  0  0
    5.2703   -7.5691   27.1123 C   0  0  0  0  0  0  0  0  0  0  0  0
    1.6204   -9.9887   17.2935 C   0  0  0  0  0  0  0  0  0  0  0  0
    1.8931   -7.9265   16.2047 C   0  0  0  0  0  0  0  0  0  0  0  0
    2.4396   -9.0801   16.7132 C   0  0  0  0  0  0  0  0  0  0  0  0
   -0.2575   -8.6234   16.8582 C   0  0  0  0  0  0  0  0  0  0  0  0
    4.0614   -7.0367   27.0106 N   0  0  0  0  0  0  0  0  0  0  0  0
   -2.9133  -11.6279   18.7578 C   0  0  0  0  0  0  0  0  0  0  0  0
    4.5688  -10.1291   29.5758 C   0  0  0  0  0  0  0  0  0  0  0  0
    2.1008   -9.0410   29.1852 N   0  0  0  0  0  0  0  0  0  0  0  0
    3.4829  -10.5697   30.2091 N   0  0  0  0  0  0  0  0  0  0  0  0
   -0.3363   -6.1172   27.5628 C   0  0  0  0  0  0  0  0  0  0  0  0
    3.0331   -7.4400   27.6362 C   0  0  0  0  0  0  0  0  0  0  0  0
    5.4553   -8.5933   27.9644 C   0  0  0  0  0  0  0  0  0  0  0  0
   -2.3870  -12.8440   19.2512 C   0  0  0  0  0  0  0  0  0  0  0  0
    0.5331   -7.6964   16.2751 C   0  0  0  0  0  0  0  0  0  0  0  0
   -0.6740  -10.8737   18.0482 C   0  0  0  0  0  0  0  0  0  0  0  0
    5.6751  -10.5870   29.7637 O   0  0  0  0  0  0  0  0  0  0  0  0
    1.7612   -5.6483   26.7172 C   0  0  0  0  0  0  0  0  0  0  0  0
    0.2221   -9.8326   17.4055 C   0  0  0  0  0  0  0  0  0  0  0  0
    4.3850   -9.0730   28.6745 C   0  0  0  0  0  0  0  0  0  0  0  0
  1  7  4  0
  1 22  4  0
  2 17  4  0
  2 20  4  0
  2 28  4  0
  3  6  1  0
  3 19  1  0
  4 19  1  0
  4 26  1  0
  5 17  4  0
  5 18  4  0
  6 20  1  0
  6 26  1  0
  7 24  4  0
  8 15  4  0
  8 24  4  0
  9 14  4  0
  9 21  4  0
 10 12  4  0
 10 27  4  0
 11 12  4  0
 11 23  4  0
 13 23  4  0
 13 27  4  0
 14 20  4  0
 15 22  4  0
 16 18  4  0
 16 25  2  0
 16 28  4  0
 21 28  4  0
 24 27  1  0
M  END
$$$$

 Created by Python create_sdf_string function

 28 31  0  0  0  0  0  0  0  0999 V2000
   -1.0054  -13.0622   19.1198 C   0  0  0  0  0  0  0  0  0  0  0  0
    3.1478   -8.5360   28.5161 C   0  0  0  0  0  0  0  0  0  0  0  0
    0.5798   -7.1906   27.9330 C   0  0  0  0  0  0  0  0  0  0  0  0
    0.3978   -5.1561   26.6955 C   0  0  0  0  0  0  0  0  0  0  0  0
    2.3063  -10.0533   30.0125 C   0  0  0  0  0  0  0  0  0  0  0  0
    1.8591   -6.8254   27.4685 N   0  0  0  0  0  0  0  0  0  0  0  0
   -0.2167  -12.1055   18.5568 C   0  0  0  0  0  0  0  0  0  0  0  0
   -2.0661  -10.6994   18.1916 C   0  0  0  0  0  0  0  0  0  0  0  0
    5.2703   -7.5691   27.1123 C   0  0  0  0  0  0  0  0  0  0  0  0
    1.6204   -9.9887   17.2935 C   0  0  0  0  0  0  0  0  0  0  0  0
    1.8931   -7.9265   16.2047 C   0  0  0  0  0  0  0  0  0  0  0  0
    2.4396   -9.0801   16.7132 C   0  0  0  0  0  0  0  0  0  0  0  0
   -0.2575   -8.6234   16.8582 C   0  0  0  0  0  0  0  0  0  0  0  0
    4.0614   -7.0367   27.0106 N   0  0  0  0  0  0  0  0  0  0  0  0
   -2.9133  -11.6279   18.7578 C   0  0  0  0  0  0  0  0  0  0  0  0
    4.5688  -10.1291   29.5758 C   0  0  0  0  0  0  0  0  0  0  0  0
    2.1008   -9.0410   29.1852 N   0  0  0  0  0  0  0  0  0  0  0  0
    3.4829  -10.5697   30.2091 N   0  0  0  0  0  0  0  0  0  0  0  0
   -0.3363   -6.1172   27.5628 C   0  0  0  0  0  0  0  0  0  0  0  0
    3.0331   -7.4400   27.6362 C   0  0  0  0  0  0  0  0  0  0  0  0
    5.4553   -8.5933   27.9644 C   0  0  0  0  0  0  0  0  0  0  0  0
   -2.3870  -12.8440   19.2512 C   0  0  0  0  0  0  0  0  0  0  0  0
    0.5331   -7.6964   16.2751 C   0  0  0  0  0  0  0  0  0  0  0  0
   -0.6740  -10.8737   18.0482 C   0  0  0  0  0  0  0  0  0  0  0  0
    5.6751  -10.5870   29.7637 O   0  0  0  0  0  0  0  0  0  0  0  0
    1.7612   -5.6483   26.7172 C   0  0  0  0  0  0  0  0  0  0  0  0
    0.2221   -9.8326   17.4055 C   0  0  0  0  0  0  0  0  0  0  0  0
    4.3850   -9.0730   28.6745 C   0  0  0  0  0  0  0  0  0  0  0  0
  1  7  4  0
  1 22  4  0
  2 17  4  0
  2 20  4  0
  2 28  4  0
  3  6  1  0
  3 19  1  0
  4 19  1  0
  4 26  1  0
  5 17  4  0
  5 18  4  0
  6 20  1  0
  6 26  1  0
  7 24  4  0
  8 15  4  0
  8 24  4  0
  9 14  4  0
  9 21  4  0
 10 12  4  0
 10 27  4  0
 11 12  4  0
 11 23  4  0
 13 23  4  0
 13 27  4  0
 14 20  4  0
 15 22  4  0
 16 18  4  0
 16 25  2  0
 16 28  4  0
 21 28  4  0
 24 27  1  0
M  END
$$$$

 Created by Python create_sdf_string function

 28 31  0  0  0  0  0  0  0  0999 V2000
   -1.0054  -13.0622   19.1198 C   0  0  0  0  0  0  0  0  0  0  0  0
    3.1478   -8.5360   28.5161 C   0  0  0  0  0  0  0  0  0  0  0  0
    0.5798   -7.1906   27.9330 C   0  0  0  0  0  0  0  0  0  0  0  0
    0.3978   -5.1561   26.6955 C   0  0  0  0  0  0  0  0  0  0  0  0
    2.3063  -10.0533   30.0125 C   0  0  0  0  0  0  0  0  0  0  0  0
    1.8591   -6.8254   27.4685 N   0  0  0  0  0  0  0  0  0  0  0  0
   -0.2167  -12.1055   18.5568 C   0  0  0  0  0  0  0  0  0  0  0  0
   -2.0661  -10.6994   18.1916 C   0  0  0  0  0  0  0  0  0  0  0  0
    5.2703   -7.5691   27.1123 C   0  0  0  0  0  0  0  0  0  0  0  0
    1.6204   -9.9887   17.2935 C   0  0  0  0  0  0  0  0  0  0  0  0
    1.8931   -7.9265   16.2047 C   0  0  0  0  0  0  0  0  0  0  0  0
    2.4396   -9.0801   16.7132 C   0  0  0  0  0  0  0  0  0  0  0  0
   -0.2575   -8.6234   16.8582 C   0  0  0  0  0  0  0  0  0  0  0  0
    4.0614   -7.0367   27.0106 N   0  0  0  0  0  0  0  0  0  0  0  0
   -2.9133  -11.6279   18.7578 C   0  0  0  0  0  0  0  0  0  0  0  0
    4.5688  -10.1291   29.5758 C   0  0  0  0  0  0  0  0  0  0  0  0
    2.1008   -9.0410   29.1852 N   0  0  0  0  0  0  0  0  0  0  0  0
    3.4829  -10.5697   30.2091 N   0  0  0  0  0  0  0  0  0  0  0  0
   -0.3363   -6.1172   27.5628 C   0  0  0  0  0  0  0  0  0  0  0  0
    3.0331   -7.4400   27.6362 C   0  0  0  0  0  0  0  0  0  0  0  0
    5.4553   -8.5933   27.9644 C   0  0  0  0  0  0  0  0  0  0  0  0
   -2.3870  -12.8440   19.2512 C   0  0  0  0  0  0  0  0  0  0  0  0
    0.5331   -7.6964   16.2751 C   0  0  0  0  0  0  0  0  0  0  0  0
   -0.6740  -10.8737   18.0482 C   0  0  0  0  0  0  0  0  0  0  0  0
    5.6751  -10.5870   29.7637 O   0  0  0  0  0  0  0  0  0  0  0  0
    1.7612   -5.6483   26.7172 C   0  0  0  0  0  0  0  0  0  0  0  0
    0.2221   -9.8326   17.4055 C   0  0  0  0  0  0  0  0  0  0  0  0
    4.3850   -9.0730   28.6745 C   0  0  0  0  0  0  0  0  0  0  0  0
  1  7  4  0
  1 22  4  0
  2 17  4  0
  2 20  4  0
  2 28  4  0
  3  6  1  0
  3 19  1  0
  4 19  1  0
  4 26  1  0
  5 17  4  0
  5 18  4  0
  6 20  1  0
  6 26  1  0
  7 24  4  0
  8 15  4  0
  8 24  4  0
  9 14  4  0
  9 21  4  0
 10 12  4  0
 10 27  4  0
 11 12  4  0
 11 23  4  0
 13 23  4  0
 13 27  4  0
 14 20  4  0
 15 22  4  0
 16 18  4  0
 16 25  2  0
 16 28  4  0
 21 28  4  0
 24 27  1  0
M  END
$$$$

 Created by Python create_sdf_string function

 28 31  0  0  0  0  0  0  0  0999 V2000
   -1.0054  -13.0622   19.1198 C   0  0  0  0  0  0  0  0  0  0  0  0
    3.1478   -8.5360   28.5161 C   0  0  0  0  0  0  0  0  0  0  0  0
    0.5798   -7.1906   27.9330 C   0  0  0  0  0  0  0  0  0  0  0  0
    0.3978   -5.1561   26.6955 C   0  0  0  0  0  0  0  0  0  0  0  0
    2.3063  -10.0533   30.0125 C   0  0  0  0  0  0  0  0  0  0  0  0
    1.8591   -6.8254   27.4685 N   0  0  0  0  0  0  0  0  0  0  0  0
   -0.2167  -12.1055   18.5568 C   0  0  0  0  0  0  0  0  0  0  0  0
   -2.0661  -10.6994   18.1916 C   0  0  0  0  0  0  0  0  0  0  0  0
    5.2703   -7.5691   27.1123 C   0  0  0  0  0  0  0  0  0  0  0  0
    1.6204   -9.9887   17.2935 C   0  0  0  0  0  0  0  0  0  0  0  0
    1.8931   -7.9265   16.2047 C   0  0  0  0  0  0  0  0  0  0  0  0
    2.4396   -9.0801   16.7132 C   0  0  0  0  0  0  0  0  0  0  0  0
   -0.2575   -8.6234   16.8582 C   0  0  0  0  0  0  0  0  0  0  0  0
    4.0614   -7.0367   27.0106 N   0  0  0  0  0  0  0  0  0  0  0  0
   -2.9133  -11.6279   18.7578 C   0  0  0  0  0  0  0  0  0  0  0  0
    4.5688  -10.1291   29.5758 C   0  0  0  0  0  0  0  0  0  0  0  0
    2.1008   -9.0410   29.1852 N   0  0  0  0  0  0  0  0  0  0  0  0
    3.4829  -10.5697   30.2091 N   0  0  0  0  0  0  0  0  0  0  0  0
   -0.3363   -6.1172   27.5628 C   0  0  0  0  0  0  0  0  0  0  0  0
    3.0331   -7.4400   27.6362 C   0  0  0  0  0  0  0  0  0  0  0  0
    5.4553   -8.5933   27.9644 C   0  0  0  0  0  0  0  0  0  0  0  0
   -2.3870  -12.8440   19.2512 C   0  0  0  0  0  0  0  0  0  0  0  0
    0.5331   -7.6964   16.2751 C   0  0  0  0  0  0  0  0  0  0  0  0
   -0.6740  -10.8737   18.0482 C   0  0  0  0  0  0  0  0  0  0  0  0
    5.6751  -10.5870   29.7637 O   0  0  0  0  0  0  0  0  0  0  0  0
    1.7612   -5.6483   26.7172 C   0  0  0  0  0  0  0  0  0  0  0  0
    0.2221   -9.8326   17.4055 C   0  0  0  0  0  0  0  0  0  0  0  0
    4.3850   -9.0730   28.6745 C   0  0  0  0  0  0  0  0  0  0  0  0
  1  7  4  0
  1 22  4  0
  2 17  4  0
  2 20  4  0
  2 28  4  0
  3  6  1  0
  3 19  1  0
  4 19  1  0
  4 26  1  0
  5 17  4  0
  5 18  4  0
  6 20  1  0
  6 26  1  0
  7 24  4  0
  8 15  4  0
  8 24  4  0
  9 14  4  0
  9 21  4  0
 10 12  4  0
 10 27  4  0
 11 12  4  0
 11 23  4  0
 13 23  4  0
 13 27  4  0
 14 20  4  0
 15 22  4  0
 16 18  4  0
 16 25  2  0
 16 28  4  0
 21 28  4  0
 24 27  1  0
M  END
$$$$

 Created by Python create_sdf_string function

 28 31  0  0  0  0  0  0  0  0999 V2000
   -1.0054  -13.0622   19.1198 C   0  0  0  0  0  0  0  0  0  0  0  0
    3.1478   -8.5360   28.5161 C   0  0  0  0  0  0  0  0  0  0  0  0
    0.5798   -7.1906   27.9330 C   0  0  0  0  0  0  0  0  0  0  0  0
    0.3978   -5.1561   26.6955 C   0  0  0  0  0  0  0  0  0  0  0  0
    2.3063  -10.0533   30.0125 C   0  0  0  0  0  0  0  0  0  0  0  0
    1.8591   -6.8254   27.4685 N   0  0  0  0  0  0  0  0  0  0  0  0
   -0.2167  -12.1055   18.5568 C   0  0  0  0  0  0  0  0  0  0  0  0
   -2.0661  -10.6994   18.1916 C   0  0  0  0  0  0  0  0  0  0  0  0
    5.2703   -7.5691   27.1123 C   0  0  0  0  0  0  0  0  0  0  0  0
    1.6204   -9.9887   17.2935 C   0  0  0  0  0  0  0  0  0  0  0  0
    1.8931   -7.9265   16.2047 C   0  0  0  0  0  0  0  0  0  0  0  0
    2.4396   -9.0801   16.7132 C   0  0  0  0  0  0  0  0  0  0  0  0
   -0.2575   -8.6234   16.8582 C   0  0  0  0  0  0  0  0  0  0  0  0
    4.0614   -7.0367   27.0106 N   0  0  0  0  0  0  0  0  0  0  0  0
   -2.9133  -11.6279   18.7578 C   0  0  0  0  0  0  0  0  0  0  0  0
    4.5688  -10.1291   29.5758 C   0  0  0  0  0  0  0  0  0  0  0  0
    2.1008   -9.0410   29.1852 N   0  0  0  0  0  0  0  0  0  0  0  0
    3.4829  -10.5697   30.2091 N   0  0  0  0  0  0  0  0  0  0  0  0
   -0.3363   -6.1172   27.5628 C   0  0  0  0  0  0  0  0  0  0  0  0
    3.0331   -7.4400   27.6362 C   0  0  0  0  0  0  0  0  0  0  0  0
    5.4553   -8.5933   27.9644 C   0  0  0  0  0  0  0  0  0  0  0  0
   -2.3870  -12.8440   19.2512 C   0  0  0  0  0  0  0  0  0  0  0  0
    0.5331   -7.6964   16.2751 C   0  0  0  0  0  0  0  0  0  0  0  0
   -0.6740  -10.8737   18.0482 C   0  0  0  0  0  0  0  0  0  0  0  0
    5.6751  -10.5870   29.7637 O   0  0  0  0  0  0  0  0  0  0  0  0
    1.7612   -5.6483   26.7172 C   0  0  0  0  0  0  0  0  0  0  0  0
    0.2221   -9.8326   17.4055 C   0  0  0  0  0  0  0  0  0  0  0  0
    4.3850   -9.0730   28.6745 C   0  0  0  0  0  0  0  0  0  0  0  0
  1  7  4  0
  1 22  4  0
  2 17  4  0
  2 20  4  0
  2 28  4  0
  3  6  1  0
  3 19  1  0
  4 19  1  0
  4 26  1  0
  5 17  4  0
  5 18  4  0
  6 20  1  0
  6 26  1  0
  7 24  4  0
  8 15  4  0
  8 24  4  0
  9 14  4  0
  9 21  4  0
 10 12  4  0
 10 27  4  0
 11 12  4  0
 11 23  4  0
 13 23  4  0
 13 27  4  0
 14 20  4  0
 15 22  4  0
 16 18  4  0
 16 25  2  0
 16 28  4  0
 21 28  4  0
 24 27  1  0
M  END
$$$$

 Created by Python create_sdf_string function

 28 31  0  0  0  0  0  0  0  0999 V2000
   -1.0054  -13.0622   19.1198 C   0  0  0  0  0  0  0  0  0  0  0  0
    3.1478   -8.5360   28.5161 C   0  0  0  0  0  0  0  0  0  0  0  0
    0.5798   -7.1906   27.9330 C   0  0  0  0  0  0  0  0  0  0  0  0
    0.3978   -5.1561   26.6955 C   0  0  0  0  0  0  0  0  0  0  0  0
    2.3063  -10.0533   30.0125 C   0  0  0  0  0  0  0  0  0  0  0  0
    1.8591   -6.8254   27.4685 N   0  0  0  0  0  0  0  0  0  0  0  0
   -0.2167  -12.1055   18.5568 C   0  0  0  0  0  0  0  0  0  0  0  0
   -2.0661  -10.6994   18.1916 C   0  0  0  0  0  0  0  0  0  0  0  0
    5.2703   -7.5691   27.1123 C   0  0  0  0  0  0  0  0  0  0  0  0
    1.6204   -9.9887   17.2935 C   0  0  0  0  0  0  0  0  0  0  0  0
    1.8931   -7.9265   16.2047 C   0  0  0  0  0  0  0  0  0  0  0  0
    2.4396   -9.0801   16.7132 C   0  0  0  0  0  0  0  0  0  0  0  0
   -0.2575   -8.6234   16.8582 C   0  0  0  0  0  0  0  0  0  0  0  0
    4.0614   -7.0367   27.0106 N   0  0  0  0  0  0  0  0  0  0  0  0
   -2.9133  -11.6279   18.7578 C   0  0  0  0  0  0  0  0  0  0  0  0
    4.5688  -10.1291   29.5758 C   0  0  0  0  0  0  0  0  0  0  0  0
    2.1008   -9.0410   29.1852 N   0  0  0  0  0  0  0  0  0  0  0  0
    3.4829  -10.5697   30.2091 N   0  0  0  0  0  0  0  0  0  0  0  0
   -0.3363   -6.1172   27.5628 C   0  0  0  0  0  0  0  0  0  0  0  0
    3.0331   -7.4400   27.6362 C   0  0  0  0  0  0  0  0  0  0  0  0
    5.4553   -8.5933   27.9644 C   0  0  0  0  0  0  0  0  0  0  0  0
   -2.3870  -12.8440   19.2512 C   0  0  0  0  0  0  0  0  0  0  0  0
    0.5331   -7.6964   16.2751 C   0  0  0  0  0  0  0  0  0  0  0  0
   -0.6740  -10.8737   18.0482 C   0  0  0  0  0  0  0  0  0  0  0  0
    5.6751  -10.5870   29.7637 O   0  0  0  0  0  0  0  0  0  0  0  0
    1.7612   -5.6483   26.7172 C   0  0  0  0  0  0  0  0  0  0  0  0
    0.2221   -9.8326   17.4055 C   0  0  0  0  0  0  0  0  0  0  0  0
    4.3850   -9.0730   28.6745 C   0  0  0  0  0  0  0  0  0  0  0  0
  1  7  4  0
  1 22  4  0
  2 17  4  0
  2 20  4  0
  2 28  4  0
  3  6  1  0
  3 19  1  0
  4 19  1  0
  4 26  1  0
  5 17  4  0
  5 18  4  0
  6 20  1  0
  6 26  1  0
  7 24  4  0
  8 15  4  0
  8 24  4  0
  9 14  4  0
  9 21  4  0
 10 12  4  0
 10 27  4  0
 11 12  4  0
 11 23  4  0
 13 23  4  0
 13 27  4  0
 14 20  4  0
 15 22  4  0
 16 18  4  0
 16 25  2  0
 16 28  4  0
 21 28  4  0
 24 27  1  0
M  END
$$$$

 Created by Python create_sdf_string function

 28 31  0  0  0  0  0  0  0  0999 V2000
   -1.0054  -13.0622   19.1198 C   0  0  0  0  0  0  0  0  0  0  0  0
    3.1478   -8.5360   28.5161 C   0  0  0  0  0  0  0  0  0  0  0  0
    0.5798   -7.1906   27.9330 C   0  0  0  0  0  0  0  0  0  0  0  0
    0.3978   -5.1561   26.6955 C   0  0  0  0  0  0  0  0  0  0  0  0
    2.3063  -10.0533   30.0125 C   0  0  0  0  0  0  0  0  0  0  0  0
    1.8591   -6.8254   27.4685 N   0  0  0  0  0  0  0  0  0  0  0  0
   -0.2167  -12.1055   18.5568 C   0  0  0  0  0  0  0  0  0  0  0  0
   -2.0661  -10.6994   18.1916 C   0  0  0  0  0  0  0  0  0  0  0  0
    5.2703   -7.5691   27.1123 C   0  0  0  0  0  0  0  0  0  0  0  0
    1.6204   -9.9887   17.2935 C   0  0  0  0  0  0  0  0  0  0  0  0
    1.8931   -7.9265   16.2047 C   0  0  0  0  0  0  0  0  0  0  0  0
    2.4396   -9.0801   16.7132 C   0  0  0  0  0  0  0  0  0  0  0  0
   -0.2575   -8.6234   16.8582 C   0  0  0  0  0  0  0  0  0  0  0  0
    4.0614   -7.0367   27.0106 N   0  0  0  0  0  0  0  0  0  0  0  0
   -2.9133  -11.6279   18.7578 C   0  0  0  0  0  0  0  0  0  0  0  0
    4.5688  -10.1291   29.5758 C   0  0  0  0  0  0  0  0  0  0  0  0
    2.1008   -9.0410   29.1852 N   0  0  0  0  0  0  0  0  0  0  0  0
    3.4829  -10.5697   30.2091 N   0  0  0  0  0  0  0  0  0  0  0  0
   -0.3363   -6.1172   27.5628 C   0  0  0  0  0  0  0  0  0  0  0  0
    3.0331   -7.4400   27.6362 C   0  0  0  0  0  0  0  0  0  0  0  0
    5.4553   -8.5933   27.9644 C   0  0  0  0  0  0  0  0  0  0  0  0
   -2.3870  -12.8440   19.2512 C   0  0  0  0  0  0  0  0  0  0  0  0
    0.5331   -7.6964   16.2751 C   0  0  0  0  0  0  0  0  0  0  0  0
   -0.6740  -10.8737   18.0482 C   0  0  0  0  0  0  0  0  0  0  0  0
    5.6751  -10.5870   29.7637 O   0  0  0  0  0  0  0  0  0  0  0  0
    1.7612   -5.6483   26.7172 C   0  0  0  0  0  0  0  0  0  0  0  0
    0.2221   -9.8326   17.4055 C   0  0  0  0  0  0  0  0  0  0  0  0
    4.3850   -9.0730   28.6745 C   0  0  0  0  0  0  0  0  0  0  0  0
  1  7  4  0
  1 22  4  0
  2 17  4  0
  2 20  4  0
  2 28  4  0
  3  6  1  0
  3 19  1  0
  4 19  1  0
  4 26  1  0
  5 17  4  0
  5 18  4  0
  6 20  1  0
  6 26  1  0
  7 24  4  0
  8 15  4  0
  8 24  4  0
  9 14  4  0
  9 21  4  0
 10 12  4  0
 10 27  4  0
 11 12  4  0
 11 23  4  0
 13 23  4  0
 13 27  4  0
 14 20  4  0
 15 22  4  0
 16 18  4  0
 16 25  2  0
 16 28  4  0
 21 28  4  0
 24 27  1  0
M  END
$$$$

 Created by Python create_sdf_string function

 28 31  0  0  0  0  0  0  0  0999 V2000
   -1.0054  -13.0622   19.1198 C   0  0  0  0  0  0  0  0  0  0  0  0
    3.1478   -8.5360   28.5161 C   0  0  0  0  0  0  0  0  0  0  0  0
    0.5798   -7.1906   27.9330 C   0  0  0  0  0  0  0  0  0  0  0  0
    0.3978   -5.1561   26.6955 C   0  0  0  0  0  0  0  0  0  0  0  0
    2.3063  -10.0533   30.0125 C   0  0  0  0  0  0  0  0  0  0  0  0
    1.8591   -6.8254   27.4685 N   0  0  0  0  0  0  0  0  0  0  0  0
   -0.2167  -12.1055   18.5568 C   0  0  0  0  0  0  0  0  0  0  0  0
   -2.0661  -10.6994   18.1916 C   0  0  0  0  0  0  0  0  0  0  0  0
    5.2703   -7.5691   27.1123 C   0  0  0  0  0  0  0  0  0  0  0  0
    1.6204   -9.9887   17.2935 C   0  0  0  0  0  0  0  0  0  0  0  0
    1.8931   -7.9265   16.2047 C   0  0  0  0  0  0  0  0  0  0  0  0
    2.4396   -9.0801   16.7132 C   0  0  0  0  0  0  0  0  0  0  0  0
   -0.2575   -8.6234   16.8582 C   0  0  0  0  0  0  0  0  0  0  0  0
    4.0614   -7.0367   27.0106 N   0  0  0  0  0  0  0  0  0  0  0  0
   -2.9133  -11.6279   18.7578 C   0  0  0  0  0  0  0  0  0  0  0  0
    4.5688  -10.1291   29.5758 C   0  0  0  0  0  0  0  0  0  0  0  0
    2.1008   -9.0410   29.1852 N   0  0  0  0  0  0  0  0  0  0  0  0
    3.4829  -10.5697   30.2091 N   0  0  0  0  0  0  0  0  0  0  0  0
   -0.3363   -6.1172   27.5628 C   0  0  0  0  0  0  0  0  0  0  0  0
    3.0331   -7.4400   27.6362 C   0  0  0  0  0  0  0  0  0  0  0  0
    5.4553   -8.5933   27.9644 C   0  0  0  0  0  0  0  0  0  0  0  0
   -2.3870  -12.8440   19.2512 C   0  0  0  0  0  0  0  0  0  0  0  0
    0.5331   -7.6964   16.2751 C   0  0  0  0  0  0  0  0  0  0  0  0
   -0.6740  -10.8737   18.0482 C   0  0  0  0  0  0  0  0  0  0  0  0
    5.6751  -10.5870   29.7637 O   0  0  0  0  0  0  0  0  0  0  0  0
    1.7612   -5.6483   26.7172 C   0  0  0  0  0  0  0  0  0  0  0  0
    0.2221   -9.8326   17.4055 C   0  0  0  0  0  0  0  0  0  0  0  0
    4.3850   -9.0730   28.6745 C   0  0  0  0  0  0  0  0  0  0  0  0
  1  7  4  0
  1 22  4  0
  2 17  4  0
  2 20  4  0
  2 28  4  0
  3  6  1  0
  3 19  1  0
  4 19  1  0
  4 26  1  0
  5 17  4  0
  5 18  4  0
  6 20  1  0
  6 26  1  0
  7 24  4  0
  8 15  4  0
  8 24  4  0
  9 14  4  0
  9 21  4  0
 10 12  4  0
 10 27  4  0
 11 12  4  0
 11 23  4  0
 13 23  4  0
 13 27  4  0
 14 20  4  0
 15 22  4  0
 16 18  4  0
 16 25  2  0
 16 28  4  0
 21 28  4  0
 24 27  1  0
M  END
$$$$

 Created by Python create_sdf_string function

 28 31  0  0  0  0  0  0  0  0999 V2000
   -1.0054  -13.0622   19.1198 C   0  0  0  0  0  0  0  0  0  0  0  0
    3.1478   -8.5360   28.5161 C   0  0  0  0  0  0  0  0  0  0  0  0
    0.5798   -7.1906   27.9330 C   0  0  0  0  0  0  0  0  0  0  0  0
    0.3978   -5.1561   26.6955 C   0  0  0  0  0  0  0  0  0  0  0  0
    2.3063  -10.0533   30.0125 C   0  0  0  0  0  0  0  0  0  0  0  0
    1.8591   -6.8254   27.4685 N   0  0  0  0  0  0  0  0  0  0  0  0
   -0.2167  -12.1055   18.5568 C   0  0  0  0  0  0  0  0  0  0  0  0
   -2.0661  -10.6994   18.1916 C   0  0  0  0  0  0  0  0  0  0  0  0
    5.2703   -7.5691   27.1123 C   0  0  0  0  0  0  0  0  0  0  0  0
    1.6204   -9.9887   17.2935 C   0  0  0  0  0  0  0  0  0  0  0  0
    1.8931   -7.9265   16.2047 C   0  0  0  0  0  0  0  0  0  0  0  0
    2.4396   -9.0801   16.7132 C   0  0  0  0  0  0  0  0  0  0  0  0
   -0.2575   -8.6234   16.8582 C   0  0  0  0  0  0  0  0  0  0  0  0
    4.0614   -7.0367   27.0106 N   0  0  0  0  0  0  0  0  0  0  0  0
   -2.9133  -11.6279   18.7578 C   0  0  0  0  0  0  0  0  0  0  0  0
    4.5688  -10.1291   29.5758 C   0  0  0  0  0  0  0  0  0  0  0  0
    2.1008   -9.0410   29.1852 N   0  0  0  0  0  0  0  0  0  0  0  0
    3.4829  -10.5697   30.2091 N   0  0  0  0  0  0  0  0  0  0  0  0
   -0.3363   -6.1172   27.5628 C   0  0  0  0  0  0  0  0  0  0  0  0
    3.0331   -7.4400   27.6362 C   0  0  0  0  0  0  0  0  0  0  0  0
    5.4553   -8.5933   27.9644 C   0  0  0  0  0  0  0  0  0  0  0  0
   -2.3870  -12.8440   19.2512 C   0  0  0  0  0  0  0  0  0  0  0  0
    0.5331   -7.6964   16.2751 C   0  0  0  0  0  0  0  0  0  0  0  0
   -0.6740  -10.8737   18.0482 C   0  0  0  0  0  0  0  0  0  0  0  0
    5.6751  -10.5870   29.7637 O   0  0  0  0  0  0  0  0  0  0  0  0
    1.7612   -5.6483   26.7172 C   0  0  0  0  0  0  0  0  0  0  0  0
    0.2221   -9.8326   17.4055 C   0  0  0  0  0  0  0  0  0  0  0  0
    4.3850   -9.0730   28.6745 C   0  0  0  0  0  0  0  0  0  0  0  0
  1  7  4  0
  1 22  4  0
  2 17  4  0
  2 20  4  0
  2 28  4  0
  3  6  1  0
  3 19  1  0
  4 19  1  0
  4 26  1  0
  5 17  4  0
  5 18  4  0
  6 20  1  0
  6 26  1  0
  7 24  4  0
  8 15  4  0
  8 24  4  0
  9 14  4  0
  9 21  4  0
 10 12  4  0
 10 27  4  0
 11 12  4  0
 11 23  4  0
 13 23  4  0
 13 27  4  0
 14 20  4  0
 15 22  4  0
 16 18  4  0
 16 25  2  0
 16 28  4  0
 21 28  4  0
 24 27  1  0
M  END
$$$$

 Created by Python create_sdf_string function

 28 31  0  0  0  0  0  0  0  0999 V2000
   -1.0054  -13.0622   19.1198 C   0  0  0  0  0  0  0  0  0  0  0  0
    3.1478   -8.5360   28.5161 C   0  0  0  0  0  0  0  0  0  0  0  0
    0.5798   -7.1906   27.9330 C   0  0  0  0  0  0  0  0  0  0  0  0
    0.3978   -5.1561   26.6955 C   0  0  0  0  0  0  0  0  0  0  0  0
    2.3063  -10.0533   30.0125 C   0  0  0  0  0  0  0  0  0  0  0  0
    1.8591   -6.8254   27.4685 N   0  0  0  0  0  0  0  0  0  0  0  0
   -0.2167  -12.1055   18.5568 C   0  0  0  0  0  0  0  0  0  0  0  0
   -2.0661  -10.6994   18.1916 C   0  0  0  0  0  0  0  0  0  0  0  0
    5.2703   -7.5691   27.1123 C   0  0  0  0  0  0  0  0  0  0  0  0
    1.6204   -9.9887   17.2935 C   0  0  0  0  0  0  0  0  0  0  0  0
    1.8931   -7.9265   16.2047 C   0  0  0  0  0  0  0  0  0  0  0  0
    2.4396   -9.0801   16.7132 C   0  0  0  0  0  0  0  0  0  0  0  0
   -0.2575   -8.6234   16.8582 C   0  0  0  0  0  0  0  0  0  0  0  0
    4.0614   -7.0367   27.0106 N   0  0  0  0  0  0  0  0  0  0  0  0
   -2.9133  -11.6279   18.7578 C   0  0  0  0  0  0  0  0  0  0  0  0
    4.5688  -10.1291   29.5758 C   0  0  0  0  0  0  0  0  0  0  0  0
    2.1008   -9.0410   29.1852 N   0  0  0  0  0  0  0  0  0  0  0  0
    3.4829  -10.5697   30.2091 N   0  0  0  0  0  0  0  0  0  0  0  0
   -0.3363   -6.1172   27.5628 C   0  0  0  0  0  0  0  0  0  0  0  0
    3.0331   -7.4400   27.6362 C   0  0  0  0  0  0  0  0  0  0  0  0
    5.4553   -8.5933   27.9644 C   0  0  0  0  0  0  0  0  0  0  0  0
   -2.3870  -12.8440   19.2512 C   0  0  0  0  0  0  0  0  0  0  0  0
    0.5331   -7.6964   16.2751 C   0  0  0  0  0  0  0  0  0  0  0  0
   -0.6740  -10.8737   18.0482 C   0  0  0  0  0  0  0  0  0  0  0  0
    5.6751  -10.5870   29.7637 O   0  0  0  0  0  0  0  0  0  0  0  0
    1.7612   -5.6483   26.7172 C   0  0  0  0  0  0  0  0  0  0  0  0
    0.2221   -9.8326   17.4055 C   0  0  0  0  0  0  0  0  0  0  0  0
    4.3850   -9.0730   28.6745 C   0  0  0  0  0  0  0  0  0  0  0  0
  1  7  4  0
  1 22  4  0
  2 17  4  0
  2 20  4  0
  2 28  4  0
  3  6  1  0
  3 19  1  0
  4 19  1  0
  4 26  1  0
  5 17  4  0
  5 18  4  0
  6 20  1  0
  6 26  1  0
  7 24  4  0
  8 15  4  0
  8 24  4  0
  9 14  4  0
  9 21  4  0
 10 12  4  0
 10 27  4  0
 11 12  4  0
 11 23  4  0
 13 23  4  0
 13 27  4  0
 14 20  4  0
 15 22  4  0
 16 18  4  0
 16 25  2  0
 16 28  4  0
 21 28  4  0
 24 27  1  0
M  END
$$$$

 Created by Python create_sdf_string function

 28 31  0  0  0  0  0  0  0  0999 V2000
   -1.0054  -13.0622   19.1198 C   0  0  0  0  0  0  0  0  0  0  0  0
    3.1478   -8.5360   28.5161 C   0  0  0  0  0  0  0  0  0  0  0  0
    0.5798   -7.1906   27.9330 C   0  0  0  0  0  0  0  0  0  0  0  0
    0.3978   -5.1561   26.6955 C   0  0  0  0  0  0  0  0  0  0  0  0
    2.3063  -10.0533   30.0125 C   0  0  0  0  0  0  0  0  0  0  0  0
    1.8591   -6.8254   27.4685 N   0  0  0  0  0  0  0  0  0  0  0  0
   -0.2167  -12.1055   18.5568 C   0  0  0  0  0  0  0  0  0  0  0  0
   -2.0661  -10.6994   18.1916 C   0  0  0  0  0  0  0  0  0  0  0  0
    5.2703   -7.5691   27.1123 C   0  0  0  0  0  0  0  0  0  0  0  0
    1.6204   -9.9887   17.2935 C   0  0  0  0  0  0  0  0  0  0  0  0
    1.8931   -7.9265   16.2047 C   0  0  0  0  0  0  0  0  0  0  0  0
    2.4396   -9.0801   16.7132 C   0  0  0  0  0  0  0  0  0  0  0  0
   -0.2575   -8.6234   16.8582 C   0  0  0  0  0  0  0  0  0  0  0  0
    4.0614   -7.0367   27.0106 N   0  0  0  0  0  0  0  0  0  0  0  0
   -2.9133  -11.6279   18.7578 C   0  0  0  0  0  0  0  0  0  0  0  0
    4.5688  -10.1291   29.5758 C   0  0  0  0  0  0  0  0  0  0  0  0
    2.1008   -9.0410   29.1852 N   0  0  0  0  0  0  0  0  0  0  0  0
    3.4829  -10.5697   30.2091 N   0  0  0  0  0  0  0  0  0  0  0  0
   -0.3363   -6.1172   27.5628 C   0  0  0  0  0  0  0  0  0  0  0  0
    3.0331   -7.4400   27.6362 C   0  0  0  0  0  0  0  0  0  0  0  0
    5.4553   -8.5933   27.9644 C   0  0  0  0  0  0  0  0  0  0  0  0
   -2.3870  -12.8440   19.2512 C   0  0  0  0  0  0  0  0  0  0  0  0
    0.5331   -7.6964   16.2751 C   0  0  0  0  0  0  0  0  0  0  0  0
   -0.6740  -10.8737   18.0482 C   0  0  0  0  0  0  0  0  0  0  0  0
    5.6751  -10.5870   29.7637 O   0  0  0  0  0  0  0  0  0  0  0  0
    1.7612   -5.6483   26.7172 C   0  0  0  0  0  0  0  0  0  0  0  0
    0.2221   -9.8326   17.4055 C   0  0  0  0  0  0  0  0  0  0  0  0
    4.3850   -9.0730   28.6745 C   0  0  0  0  0  0  0  0  0  0  0  0
  1  7  4  0
  1 22  4  0
  2 17  4  0
  2 20  4  0
  2 28  4  0
  3  6  1  0
  3 19  1  0
  4 19  1  0
  4 26  1  0
  5 17  4  0
  5 18  4  0
  6 20  1  0
  6 26  1  0
  7 24  4  0
  8 15  4  0
  8 24  4  0
  9 14  4  0
  9 21  4  0
 10 12  4  0
 10 27  4  0
 11 12  4  0
 11 23  4  0
 13 23  4  0
 13 27  4  0
 14 20  4  0
 15 22  4  0
 16 18  4  0
 16 25  2  0
 16 28  4  0
 21 28  4  0
 24 27  1  0
M  END
$$$$

 Created by Python create_sdf_string function

 28 31  0  0  0  0  0  0  0  0999 V2000
   -1.0054  -13.0622   19.1198 C   0  0  0  0  0  0  0  0  0  0  0  0
    3.1478   -8.5360   28.5161 C   0  0  0  0  0  0  0  0  0  0  0  0
    0.5798   -7.1906   27.9330 C   0  0  0  0  0  0  0  0  0  0  0  0
    0.3978   -5.1561   26.6955 C   0  0  0  0  0  0  0  0  0  0  0  0
    2.3063  -10.0533   30.0125 C   0  0  0  0  0  0  0  0  0  0  0  0
    1.8591   -6.8254   27.4685 N   0  0  0  0  0  0  0  0  0  0  0  0
   -0.2167  -12.1055   18.5568 C   0  0  0  0  0  0  0  0  0  0  0  0
   -2.0661  -10.6994   18.1916 C   0  0  0  0  0  0  0  0  0  0  0  0
    5.2703   -7.5691   27.1123 C   0  0  0  0  0  0  0  0  0  0  0  0
    1.6204   -9.9887   17.2935 C   0  0  0  0  0  0  0  0  0  0  0  0
    1.8931   -7.9265   16.2047 C   0  0  0  0  0  0  0  0  0  0  0  0
    2.4396   -9.0801   16.7132 C   0  0  0  0  0  0  0  0  0  0  0  0
   -0.2575   -8.6234   16.8582 C   0  0  0  0  0  0  0  0  0  0  0  0
    4.0614   -7.0367   27.0106 N   0  0  0  0  0  0  0  0  0  0  0  0
   -2.9133  -11.6279   18.7578 C   0  0  0  0  0  0  0  0  0  0  0  0
    4.5688  -10.1291   29.5758 C   0  0  0  0  0  0  0  0  0  0  0  0
    2.1008   -9.0410   29.1852 N   0  0  0  0  0  0  0  0  0  0  0  0
    3.4829  -10.5697   30.2091 N   0  0  0  0  0  0  0  0  0  0  0  0
   -0.3363   -6.1172   27.5628 C   0  0  0  0  0  0  0  0  0  0  0  0
    3.0331   -7.4400   27.6362 C   0  0  0  0  0  0  0  0  0  0  0  0
    5.4553   -8.5933   27.9644 C   0  0  0  0  0  0  0  0  0  0  0  0
   -2.3870  -12.8440   19.2512 C   0  0  0  0  0  0  0  0  0  0  0  0
    0.5331   -7.6964   16.2751 C   0  0  0  0  0  0  0  0  0  0  0  0
   -0.6740  -10.8737   18.0482 C   0  0  0  0  0  0  0  0  0  0  0  0
    5.6751  -10.5870   29.7637 O   0  0  0  0  0  0  0  0  0  0  0  0
    1.7612   -5.6483   26.7172 C   0  0  0  0  0  0  0  0  0  0  0  0
    0.2221   -9.8326   17.4055 C   0  0  0  0  0  0  0  0  0  0  0  0
    4.3850   -9.0730   28.6745 C   0  0  0  0  0  0  0  0  0  0  0  0
  1  7  4  0
  1 22  4  0
  2 17  4  0
  2 20  4  0
  2 28  4  0
  3  6  1  0
  3 19  1  0
  4 19  1  0
  4 26  1  0
  5 17  4  0
  5 18  4  0
  6 20  1  0
  6 26  1  0
  7 24  4  0
  8 15  4  0
  8 24  4  0
  9 14  4  0
  9 21  4  0
 10 12  4  0
 10 27  4  0
 11 12  4  0
 11 23  4  0
 13 23  4  0
 13 27  4  0
 14 20  4  0
 15 22  4  0
 16 18  4  0
 16 25  2  0
 16 28  4  0
 21 28  4  0
 24 27  1  0
M  END
$$$$

 Created by Python create_sdf_string function

 28 31  0  0  0  0  0  0  0  0999 V2000
   -1.0054  -13.0622   19.1198 C   0  0  0  0  0  0  0  0  0  0  0  0
    3.1478   -8.5360   28.5161 C   0  0  0  0  0  0  0  0  0  0  0  0
    0.5798   -7.1906   27.9330 C   0  0  0  0  0  0  0  0  0  0  0  0
    0.3978   -5.1561   26.6955 C   0  0  0  0  0  0  0  0  0  0  0  0
    2.3063  -10.0533   30.0125 C   0  0  0  0  0  0  0  0  0  0  0  0
    1.8591   -6.8254   27.4685 N   0  0  0  0  0  0  0  0  0  0  0  0
   -0.2167  -12.1055   18.5568 C   0  0  0  0  0  0  0  0  0  0  0  0
   -2.0661  -10.6994   18.1916 C   0  0  0  0  0  0  0  0  0  0  0  0
    5.2703   -7.5691   27.1123 C   0  0  0  0  0  0  0  0  0  0  0  0
    1.6204   -9.9887   17.2935 C   0  0  0  0  0  0  0  0  0  0  0  0
    1.8931   -7.9265   16.2047 C   0  0  0  0  0  0  0  0  0  0  0  0
    2.4396   -9.0801   16.7132 C   0  0  0  0  0  0  0  0  0  0  0  0
   -0.2575   -8.6234   16.8582 C   0  0  0  0  0  0  0  0  0  0  0  0
    4.0614   -7.0367   27.0106 N   0  0  0  0  0  0  0  0  0  0  0  0
   -2.9133  -11.6279   18.7578 C   0  0  0  0  0  0  0  0  0  0  0  0
    4.5688  -10.1291   29.5758 C   0  0  0  0  0  0  0  0  0  0  0  0
    2.1008   -9.0410   29.1852 N   0  0  0  0  0  0  0  0  0  0  0  0
    3.4829  -10.5697   30.2091 N   0  0  0  0  0  0  0  0  0  0  0  0
   -0.3363   -6.1172   27.5628 C   0  0  0  0  0  0  0  0  0  0  0  0
    3.0331   -7.4400   27.6362 C   0  0  0  0  0  0  0  0  0  0  0  0
    5.4553   -8.5933   27.9644 C   0  0  0  0  0  0  0  0  0  0  0  0
   -2.3870  -12.8440   19.2512 C   0  0  0  0  0  0  0  0  0  0  0  0
    0.5331   -7.6964   16.2751 C   0  0  0  0  0  0  0  0  0  0  0  0
   -0.6740  -10.8737   18.0482 C   0  0  0  0  0  0  0  0  0  0  0  0
    5.6751  -10.5870   29.7637 O   0  0  0  0  0  0  0  0  0  0  0  0
    1.7612   -5.6483   26.7172 C   0  0  0  0  0  0  0  0  0  0  0  0
    0.2221   -9.8326   17.4055 C   0  0  0  0  0  0  0  0  0  0  0  0
    4.3850   -9.0730   28.6745 C   0  0  0  0  0  0  0  0  0  0  0  0
  1  7  4  0
  1 22  4  0
  2 17  4  0
  2 20  4  0
  2 28  4  0
  3  6  1  0
  3 19  1  0
  4 19  1  0
  4 26  1  0
  5 17  4  0
  5 18  4  0
  6 20  1  0
  6 26  1  0
  7 24  4  0
  8 15  4  0
  8 24  4  0
  9 14  4  0
  9 21  4  0
 10 12  4  0
 10 27  4  0
 11 12  4  0
 11 23  4  0
 13 23  4  0
 13 27  4  0
 14 20  4  0
 15 22  4  0
 16 18  4  0
 16 25  2  0
 16 28  4  0
 21 28  4  0
 24 27  1  0
M  END
$$$$

 Created by Python create_sdf_string function

 28 31  0  0  0  0  0  0  0  0999 V2000
   -1.0054  -13.0622   19.1198 C   0  0  0  0  0  0  0  0  0  0  0  0
    3.1478   -8.5360   28.5161 C   0  0  0  0  0  0  0  0  0  0  0  0
    0.5798   -7.1906   27.9330 C   0  0  0  0  0  0  0  0  0  0  0  0
    0.3978   -5.1561   26.6955 C   0  0  0  0  0  0  0  0  0  0  0  0
    2.3063  -10.0533   30.0125 C   0  0  0  0  0  0  0  0  0  0  0  0
    1.8591   -6.8254   27.4685 N   0  0  0  0  0  0  0  0  0  0  0  0
   -0.2167  -12.1055   18.5568 C   0  0  0  0  0  0  0  0  0  0  0  0
   -2.0661  -10.6994   18.1916 C   0  0  0  0  0  0  0  0  0  0  0  0
    5.2703   -7.5691   27.1123 C   0  0  0  0  0  0  0  0  0  0  0  0
    1.6204   -9.9887   17.2935 C   0  0  0  0  0  0  0  0  0  0  0  0
    1.8931   -7.9265   16.2047 C   0  0  0  0  0  0  0  0  0  0  0  0
    2.4396   -9.0801   16.7132 C   0  0  0  0  0  0  0  0  0  0  0  0
   -0.2575   -8.6234   16.8582 C   0  0  0  0  0  0  0  0  0  0  0  0
    4.0614   -7.0367   27.0106 N   0  0  0  0  0  0  0  0  0  0  0  0
   -2.9133  -11.6279   18.7578 C   0  0  0  0  0  0  0  0  0  0  0  0
    4.5688  -10.1291   29.5758 C   0  0  0  0  0  0  0  0  0  0  0  0
    2.1008   -9.0410   29.1852 N   0  0  0  0  0  0  0  0  0  0  0  0
    3.4829  -10.5697   30.2091 N   0  0  0  0  0  0  0  0  0  0  0  0
   -0.3363   -6.1172   27.5628 C   0  0  0  0  0  0  0  0  0  0  0  0
    3.0331   -7.4400   27.6362 C   0  0  0  0  0  0  0  0  0  0  0  0
    5.4553   -8.5933   27.9644 C   0  0  0  0  0  0  0  0  0  0  0  0
   -2.3870  -12.8440   19.2512 C   0  0  0  0  0  0  0  0  0  0  0  0
    0.5331   -7.6964   16.2751 C   0  0  0  0  0  0  0  0  0  0  0  0
   -0.6740  -10.8737   18.0482 C   0  0  0  0  0  0  0  0  0  0  0  0
    5.6751  -10.5870   29.7637 O   0  0  0  0  0  0  0  0  0  0  0  0
    1.7612   -5.6483   26.7172 C   0  0  0  0  0  0  0  0  0  0  0  0
    0.2221   -9.8326   17.4055 C   0  0  0  0  0  0  0  0  0  0  0  0
    4.3850   -9.0730   28.6745 C   0  0  0  0  0  0  0  0  0  0  0  0
  1  7  4  0
  1 22  4  0
  2 17  4  0
  2 20  4  0
  2 28  4  0
  3  6  1  0
  3 19  1  0
  4 19  1  0
  4 26  1  0
  5 17  4  0
  5 18  4  0
  6 20  1  0
  6 26  1  0
  7 24  4  0
  8 15  4  0
  8 24  4  0
  9 14  4  0
  9 21  4  0
 10 12  4  0
 10 27  4  0
 11 12  4  0
 11 23  4  0
 13 23  4  0
 13 27  4  0
 14 20  4  0
 15 22  4  0
 16 18  4  0
 16 25  2  0
 16 28  4  0
 21 28  4  0
 24 27  1  0
M  END
$$$$

 Created by Python create_sdf_string function

 28 31  0  0  0  0  0  0  0  0999 V2000
   -1.0054  -13.0622   19.1198 C   0  0  0  0  0  0  0  0  0  0  0  0
    3.1478   -8.5360   28.5161 C   0  0  0  0  0  0  0  0  0  0  0  0
    0.5798   -7.1906   27.9330 C   0  0  0  0  0  0  0  0  0  0  0  0
    0.3978   -5.1561   26.6955 C   0  0  0  0  0  0  0  0  0  0  0  0
    2.3063  -10.0533   30.0125 C   0  0  0  0  0  0  0  0  0  0  0  0
    1.8591   -6.8254   27.4685 N   0  0  0  0  0  0  0  0  0  0  0  0
   -0.2167  -12.1055   18.5568 C   0  0  0  0  0  0  0  0  0  0  0  0
   -2.0661  -10.6994   18.1916 C   0  0  0  0  0  0  0  0  0  0  0  0
    5.2703   -7.5691   27.1123 C   0  0  0  0  0  0  0  0  0  0  0  0
    1.6204   -9.9887   17.2935 C   0  0  0  0  0  0  0  0  0  0  0  0
    1.8931   -7.9265   16.2047 C   0  0  0  0  0  0  0  0  0  0  0  0
    2.4396   -9.0801   16.7132 C   0  0  0  0  0  0  0  0  0  0  0  0
   -0.2575   -8.6234   16.8582 C   0  0  0  0  0  0  0  0  0  0  0  0
    4.0614   -7.0367   27.0106 N   0  0  0  0  0  0  0  0  0  0  0  0
   -2.9133  -11.6279   18.7578 C   0  0  0  0  0  0  0  0  0  0  0  0
    4.5688  -10.1291   29.5758 C   0  0  0  0  0  0  0  0  0  0  0  0
    2.1008   -9.0410   29.1852 N   0  0  0  0  0  0  0  0  0  0  0  0
    3.4829  -10.5697   30.2091 N   0  0  0  0  0  0  0  0  0  0  0  0
   -0.3363   -6.1172   27.5628 C   0  0  0  0  0  0  0  0  0  0  0  0
    3.0331   -7.4400   27.6362 C   0  0  0  0  0  0  0  0  0  0  0  0
    5.4553   -8.5933   27.9644 C   0  0  0  0  0  0  0  0  0  0  0  0
   -2.3870  -12.8440   19.2512 C   0  0  0  0  0  0  0  0  0  0  0  0
    0.5331   -7.6964   16.2751 C   0  0  0  0  0  0  0  0  0  0  0  0
   -0.6740  -10.8737   18.0482 C   0  0  0  0  0  0  0  0  0  0  0  0
    5.6751  -10.5870   29.7637 O   0  0  0  0  0  0  0  0  0  0  0  0
    1.7612   -5.6483   26.7172 C   0  0  0  0  0  0  0  0  0  0  0  0
    0.2221   -9.8326   17.4055 C   0  0  0  0  0  0  0  0  0  0  0  0
    4.3850   -9.0730   28.6745 C   0  0  0  0  0  0  0  0  0  0  0  0
  1  7  4  0
  1 22  4  0
  2 17  4  0
  2 20  4  0
  2 28  4  0
  3  6  1  0
  3 19  1  0
  4 19  1  0
  4 26  1  0
  5 17  4  0
  5 18  4  0
  6 20  1  0
  6 26  1  0
  7 24  4  0
  8 15  4  0
  8 24  4  0
  9 14  4  0
  9 21  4  0
 10 12  4  0
 10 27  4  0
 11 12  4  0
 11 23  4  0
 13 23  4  0
 13 27  4  0
 14 20  4  0
 15 22  4  0
 16 18  4  0
 16 25  2  0
 16 28  4  0
 21 28  4  0
 24 27  1  0
M  END
$$$$

 Created by Python create_sdf_string function

 28 31  0  0  0  0  0  0  0  0999 V2000
   -1.0054  -13.0622   19.1198 C   0  0  0  0  0  0  0  0  0  0  0  0
    3.1478   -8.5360   28.5161 C   0  0  0  0  0  0  0  0  0  0  0  0
    0.5798   -7.1906   27.9330 C   0  0  0  0  0  0  0  0  0  0  0  0
    0.3978   -5.1561   26.6955 C   0  0  0  0  0  0  0  0  0  0  0  0
    2.3063  -10.0533   30.0125 C   0  0  0  0  0  0  0  0  0  0  0  0
    1.8591   -6.8254   27.4685 N   0  0  0  0  0  0  0  0  0  0  0  0
   -0.2167  -12.1055   18.5568 C   0  0  0  0  0  0  0  0  0  0  0  0
   -2.0661  -10.6994   18.1916 C   0  0  0  0  0  0  0  0  0  0  0  0
    5.2703   -7.5691   27.1123 C   0  0  0  0  0  0  0  0  0  0  0  0
    1.6204   -9.9887   17.2935 C   0  0  0  0  0  0  0  0  0  0  0  0
    1.8931   -7.9265   16.2047 C   0  0  0  0  0  0  0  0  0  0  0  0
    2.4396   -9.0801   16.7132 C   0  0  0  0  0  0  0  0  0  0  0  0
   -0.2575   -8.6234   16.8582 C   0  0  0  0  0  0  0  0  0  0  0  0
    4.0614   -7.0367   27.0106 N   0  0  0  0  0  0  0  0  0  0  0  0
   -2.9133  -11.6279   18.7578 C   0  0  0  0  0  0  0  0  0  0  0  0
    4.5688  -10.1291   29.5758 C   0  0  0  0  0  0  0  0  0  0  0  0
    2.1008   -9.0410   29.1852 N   0  0  0  0  0  0  0  0  0  0  0  0
    3.4829  -10.5697   30.2091 N   0  0  0  0  0  0  0  0  0  0  0  0
   -0.3363   -6.1172   27.5628 C   0  0  0  0  0  0  0  0  0  0  0  0
    3.0331   -7.4400   27.6362 C   0  0  0  0  0  0  0  0  0  0  0  0
    5.4553   -8.5933   27.9644 C   0  0  0  0  0  0  0  0  0  0  0  0
   -2.3870  -12.8440   19.2512 C   0  0  0  0  0  0  0  0  0  0  0  0
    0.5331   -7.6964   16.2751 C   0  0  0  0  0  0  0  0  0  0  0  0
   -0.6740  -10.8737   18.0482 C   0  0  0  0  0  0  0  0  0  0  0  0
    5.6751  -10.5870   29.7637 O   0  0  0  0  0  0  0  0  0  0  0  0
    1.7612   -5.6483   26.7172 C   0  0  0  0  0  0  0  0  0  0  0  0
    0.2221   -9.8326   17.4055 C   0  0  0  0  0  0  0  0  0  0  0  0
    4.3850   -9.0730   28.6745 C   0  0  0  0  0  0  0  0  0  0  0  0
  1  7  4  0
  1 22  4  0
  2 17  4  0
  2 20  4  0
  2 28  4  0
  3  6  1  0
  3 19  1  0
  4 19  1  0
  4 26  1  0
  5 17  4  0
  5 18  4  0
  6 20  1  0
  6 26  1  0
  7 24  4  0
  8 15  4  0
  8 24  4  0
  9 14  4  0
  9 21  4  0
 10 12  4  0
 10 27  4  0
 11 12  4  0
 11 23  4  0
 13 23  4  0
 13 27  4  0
 14 20  4  0
 15 22  4  0
 16 18  4  0
 16 25  2  0
 16 28  4  0
 21 28  4  0
 24 27  1  0
M  END
$$$$

 Created by Python create_sdf_string function

 28 31  0  0  0  0  0  0  0  0999 V2000
   -1.0054  -13.0622   19.1198 C   0  0  0  0  0  0  0  0  0  0  0  0
    3.1478   -8.5360   28.5161 C   0  0  0  0  0  0  0  0  0  0  0  0
    0.5798   -7.1906   27.9330 C   0  0  0  0  0  0  0  0  0  0  0  0
    0.3978   -5.1561   26.6955 C   0  0  0  0  0  0  0  0  0  0  0  0
    2.3063  -10.0533   30.0125 C   0  0  0  0  0  0  0  0  0  0  0  0
    1.8591   -6.8254   27.4685 N   0  0  0  0  0  0  0  0  0  0  0  0
   -0.2167  -12.1055   18.5568 C   0  0  0  0  0  0  0  0  0  0  0  0
   -2.0661  -10.6994   18.1916 C   0  0  0  0  0  0  0  0  0  0  0  0
    5.2703   -7.5691   27.1123 C   0  0  0  0  0  0  0  0  0  0  0  0
    1.6204   -9.9887   17.2935 C   0  0  0  0  0  0  0  0  0  0  0  0
    1.8931   -7.9265   16.2047 C   0  0  0  0  0  0  0  0  0  0  0  0
    2.4396   -9.0801   16.7132 C   0  0  0  0  0  0  0  0  0  0  0  0
   -0.2575   -8.6234   16.8582 C   0  0  0  0  0  0  0  0  0  0  0  0
    4.0614   -7.0367   27.0106 N   0  0  0  0  0  0  0  0  0  0  0  0
   -2.9133  -11.6279   18.7578 C   0  0  0  0  0  0  0  0  0  0  0  0
    4.5688  -10.1291   29.5758 C   0  0  0  0  0  0  0  0  0  0  0  0
    2.1008   -9.0410   29.1852 N   0  0  0  0  0  0  0  0  0  0  0  0
    3.4829  -10.5697   30.2091 N   0  0  0  0  0  0  0  0  0  0  0  0
   -0.3363   -6.1172   27.5628 C   0  0  0  0  0  0  0  0  0  0  0  0
    3.0331   -7.4400   27.6362 C   0  0  0  0  0  0  0  0  0  0  0  0
    5.4553   -8.5933   27.9644 C   0  0  0  0  0  0  0  0  0  0  0  0
   -2.3870  -12.8440   19.2512 C   0  0  0  0  0  0  0  0  0  0  0  0
    0.5331   -7.6964   16.2751 C   0  0  0  0  0  0  0  0  0  0  0  0
   -0.6740  -10.8737   18.0482 C   0  0  0  0  0  0  0  0  0  0  0  0
    5.6751  -10.5870   29.7637 O   0  0  0  0  0  0  0  0  0  0  0  0
    1.7612   -5.6483   26.7172 C   0  0  0  0  0  0  0  0  0  0  0  0
    0.2221   -9.8326   17.4055 C   0  0  0  0  0  0  0  0  0  0  0  0
    4.3850   -9.0730   28.6745 C   0  0  0  0  0  0  0  0  0  0  0  0
  1  7  4  0
  1 22  4  0
  2 17  4  0
  2 20  4  0
  2 28  4  0
  3  6  1  0
  3 19  1  0
  4 19  1  0
  4 26  1  0
  5 17  4  0
  5 18  4  0
  6 20  1  0
  6 26  1  0
  7 24  4  0
  8 15  4  0
  8 24  4  0
  9 14  4  0
  9 21  4  0
 10 12  4  0
 10 27  4  0
 11 12  4  0
 11 23  4  0
 13 23  4  0
 13 27  4  0
 14 20  4  0
 15 22  4  0
 16 18  4  0
 16 25  2  0
 16 28  4  0
 21 28  4  0
 24 27  1  0
M  END
$$$$

 Created by Python create_sdf_string function

 28 31  0  0  0  0  0  0  0  0999 V2000
   -1.0054  -13.0622   19.1198 C   0  0  0  0  0  0  0  0  0  0  0  0
    3.1478   -8.5360   28.5161 C   0  0  0  0  0  0  0  0  0  0  0  0
    0.5798   -7.1906   27.9330 C   0  0  0  0  0  0  0  0  0  0  0  0
    0.3978   -5.1561   26.6955 C   0  0  0  0  0  0  0  0  0  0  0  0
    2.3063  -10.0533   30.0125 C   0  0  0  0  0  0  0  0  0  0  0  0
    1.8591   -6.8254   27.4685 N   0  0  0  0  0  0  0  0  0  0  0  0
   -0.2167  -12.1055   18.5568 C   0  0  0  0  0  0  0  0  0  0  0  0
   -2.0661  -10.6994   18.1916 C   0  0  0  0  0  0  0  0  0  0  0  0
    5.2703   -7.5691   27.1123 C   0  0  0  0  0  0  0  0  0  0  0  0
    1.6204   -9.9887   17.2935 C   0  0  0  0  0  0  0  0  0  0  0  0
    1.8931   -7.9265   16.2047 C   0  0  0  0  0  0  0  0  0  0  0  0
    2.4396   -9.0801   16.7132 C   0  0  0  0  0  0  0  0  0  0  0  0
   -0.2575   -8.6234   16.8582 C   0  0  0  0  0  0  0  0  0  0  0  0
    4.0614   -7.0367   27.0106 N   0  0  0  0  0  0  0  0  0  0  0  0
   -2.9133  -11.6279   18.7578 C   0  0  0  0  0  0  0  0  0  0  0  0
    4.5688  -10.1291   29.5758 C   0  0  0  0  0  0  0  0  0  0  0  0
    2.1008   -9.0410   29.1852 N   0  0  0  0  0  0  0  0  0  0  0  0
    3.4829  -10.5697   30.2091 N   0  0  0  0  0  0  0  0  0  0  0  0
   -0.3363   -6.1172   27.5628 C   0  0  0  0  0  0  0  0  0  0  0  0
    3.0331   -7.4400   27.6362 C   0  0  0  0  0  0  0  0  0  0  0  0
    5.4553   -8.5933   27.9644 C   0  0  0  0  0  0  0  0  0  0  0  0
   -2.3870  -12.8440   19.2512 C   0  0  0  0  0  0  0  0  0  0  0  0
    0.5331   -7.6964   16.2751 C   0  0  0  0  0  0  0  0  0  0  0  0
   -0.6740  -10.8737   18.0482 C   0  0  0  0  0  0  0  0  0  0  0  0
    5.6751  -10.5870   29.7637 O   0  0  0  0  0  0  0  0  0  0  0  0
    1.7612   -5.6483   26.7172 C   0  0  0  0  0  0  0  0  0  0  0  0
    0.2221   -9.8326   17.4055 C   0  0  0  0  0  0  0  0  0  0  0  0
    4.3850   -9.0730   28.6745 C   0  0  0  0  0  0  0  0  0  0  0  0
  1  7  4  0
  1 22  4  0
  2 17  4  0
  2 20  4  0
  2 28  4  0
  3  6  1  0
  3 19  1  0
  4 19  1  0
  4 26  1  0
  5 17  4  0
  5 18  4  0
  6 20  1  0
  6 26  1  0
  7 24  4  0
  8 15  4  0
  8 24  4  0
  9 14  4  0
  9 21  4  0
 10 12  4  0
 10 27  4  0
 11 12  4  0
 11 23  4  0
 13 23  4  0
 13 27  4  0
 14 20  4  0
 15 22  4  0
 16 18  4  0
 16 25  2  0
 16 28  4  0
 21 28  4  0
 24 27  1  0
M  END
$$$$

 Created by Python create_sdf_string function

 28 31  0  0  0  0  0  0  0  0999 V2000
   -1.0054  -13.0622   19.1198 C   0  0  0  0  0  0  0  0  0  0  0  0
    3.1478   -8.5360   28.5161 C   0  0  0  0  0  0  0  0  0  0  0  0
    0.5798   -7.1906   27.9330 C   0  0  0  0  0  0  0  0  0  0  0  0
    0.3978   -5.1561   26.6955 C   0  0  0  0  0  0  0  0  0  0  0  0
    2.3063  -10.0533   30.0125 C   0  0  0  0  0  0  0  0  0  0  0  0
    1.8591   -6.8254   27.4685 N   0  0  0  0  0  0  0  0  0  0  0  0
   -0.2167  -12.1055   18.5568 C   0  0  0  0  0  0  0  0  0  0  0  0
   -2.0661  -10.6994   18.1916 C   0  0  0  0  0  0  0  0  0  0  0  0
    5.2703   -7.5691   27.1123 C   0  0  0  0  0  0  0  0  0  0  0  0
    1.6204   -9.9887   17.2935 C   0  0  0  0  0  0  0  0  0  0  0  0
    1.8931   -7.9265   16.2047 C   0  0  0  0  0  0  0  0  0  0  0  0
    2.4396   -9.0801   16.7132 C   0  0  0  0  0  0  0  0  0  0  0  0
   -0.2575   -8.6234   16.8582 C   0  0  0  0  0  0  0  0  0  0  0  0
    4.0614   -7.0367   27.0106 N   0  0  0  0  0  0  0  0  0  0  0  0
   -2.9133  -11.6279   18.7578 C   0  0  0  0  0  0  0  0  0  0  0  0
    4.5688  -10.1291   29.5758 C   0  0  0  0  0  0  0  0  0  0  0  0
    2.1008   -9.0410   29.1852 N   0  0  0  0  0  0  0  0  0  0  0  0
    3.4829  -10.5697   30.2091 N   0  0  0  0  0  0  0  0  0  0  0  0
   -0.3363   -6.1172   27.5628 C   0  0  0  0  0  0  0  0  0  0  0  0
    3.0331   -7.4400   27.6362 C   0  0  0  0  0  0  0  0  0  0  0  0
    5.4553   -8.5933   27.9644 C   0  0  0  0  0  0  0  0  0  0  0  0
   -2.3870  -12.8440   19.2512 C   0  0  0  0  0  0  0  0  0  0  0  0
    0.5331   -7.6964   16.2751 C   0  0  0  0  0  0  0  0  0  0  0  0
   -0.6740  -10.8737   18.0482 C   0  0  0  0  0  0  0  0  0  0  0  0
    5.6751  -10.5870   29.7637 O   0  0  0  0  0  0  0  0  0  0  0  0
    1.7612   -5.6483   26.7172 C   0  0  0  0  0  0  0  0  0  0  0  0
    0.2221   -9.8326   17.4055 C   0  0  0  0  0  0  0  0  0  0  0  0
    4.3850   -9.0730   28.6745 C   0  0  0  0  0  0  0  0  0  0  0  0
  1  7  4  0
  1 22  4  0
  2 17  4  0
  2 20  4  0
  2 28  4  0
  3  6  1  0
  3 19  1  0
  4 19  1  0
  4 26  1  0
  5 17  4  0
  5 18  4  0
  6 20  1  0
  6 26  1  0
  7 24  4  0
  8 15  4  0
  8 24  4  0
  9 14  4  0
  9 21  4  0
 10 12  4  0
 10 27  4  0
 11 12  4  0
 11 23  4  0
 13 23  4  0
 13 27  4  0
 14 20  4  0
 15 22  4  0
 16 18  4  0
 16 25  2  0
 16 28  4  0
 21 28  4  0
 24 27  1  0
M  END
$$$$

 Created by Python create_sdf_string function

 28 31  0  0  0  0  0  0  0  0999 V2000
   -1.0054  -13.0622   19.1198 C   0  0  0  0  0  0  0  0  0  0  0  0
    3.1478   -8.5360   28.5161 C   0  0  0  0  0  0  0  0  0  0  0  0
    0.5798   -7.1906   27.9330 C   0  0  0  0  0  0  0  0  0  0  0  0
    0.3978   -5.1561   26.6955 C   0  0  0  0  0  0  0  0  0  0  0  0
    2.3063  -10.0533   30.0125 C   0  0  0  0  0  0  0  0  0  0  0  0
    1.8591   -6.8254   27.4685 N   0  0  0  0  0  0  0  0  0  0  0  0
   -0.2167  -12.1055   18.5568 C   0  0  0  0  0  0  0  0  0  0  0  0
   -2.0661  -10.6994   18.1916 C   0  0  0  0  0  0  0  0  0  0  0  0
    5.2703   -7.5691   27.1123 C   0  0  0  0  0  0  0  0  0  0  0  0
    1.6204   -9.9887   17.2935 C   0  0  0  0  0  0  0  0  0  0  0  0
    1.8931   -7.9265   16.2047 C   0  0  0  0  0  0  0  0  0  0  0  0
    2.4396   -9.0801   16.7132 C   0  0  0  0  0  0  0  0  0  0  0  0
   -0.2575   -8.6234   16.8582 C   0  0  0  0  0  0  0  0  0  0  0  0
    4.0614   -7.0367   27.0106 N   0  0  0  0  0  0  0  0  0  0  0  0
   -2.9133  -11.6279   18.7578 C   0  0  0  0  0  0  0  0  0  0  0  0
    4.5688  -10.1291   29.5758 C   0  0  0  0  0  0  0  0  0  0  0  0
    2.1008   -9.0410   29.1852 N   0  0  0  0  0  0  0  0  0  0  0  0
    3.4829  -10.5697   30.2091 N   0  0  0  0  0  0  0  0  0  0  0  0
   -0.3363   -6.1172   27.5628 C   0  0  0  0  0  0  0  0  0  0  0  0
    3.0331   -7.4400   27.6362 C   0  0  0  0  0  0  0  0  0  0  0  0
    5.4553   -8.5933   27.9644 C   0  0  0  0  0  0  0  0  0  0  0  0
   -2.3870  -12.8440   19.2512 C   0  0  0  0  0  0  0  0  0  0  0  0
    0.5331   -7.6964   16.2751 C   0  0  0  0  0  0  0  0  0  0  0  0
   -0.6740  -10.8737   18.0482 C   0  0  0  0  0  0  0  0  0  0  0  0
    5.6751  -10.5870   29.7637 O   0  0  0  0  0  0  0  0  0  0  0  0
    1.7612   -5.6483   26.7172 C   0  0  0  0  0  0  0  0  0  0  0  0
    0.2221   -9.8326   17.4055 C   0  0  0  0  0  0  0  0  0  0  0  0
    4.3850   -9.0730   28.6745 C   0  0  0  0  0  0  0  0  0  0  0  0
  1  7  4  0
  1 22  4  0
  2 17  4  0
  2 20  4  0
  2 28  4  0
  3  6  1  0
  3 19  1  0
  4 19  1  0
  4 26  1  0
  5 17  4  0
  5 18  4  0
  6 20  1  0
  6 26  1  0
  7 24  4  0
  8 15  4  0
  8 24  4  0
  9 14  4  0
  9 21  4  0
 10 12  4  0
 10 27  4  0
 11 12  4  0
 11 23  4  0
 13 23  4  0
 13 27  4  0
 14 20  4  0
 15 22  4  0
 16 18  4  0
 16 25  2  0
 16 28  4  0
 21 28  4  0
 24 27  1  0
M  END
$$$$

 Created by Python create_sdf_string function

 28 31  0  0  0  0  0  0  0  0999 V2000
   -1.0054  -13.0622   19.1198 C   0  0  0  0  0  0  0  0  0  0  0  0
    3.1478   -8.5360   28.5161 C   0  0  0  0  0  0  0  0  0  0  0  0
    0.5798   -7.1906   27.9330 C   0  0  0  0  0  0  0  0  0  0  0  0
    0.3978   -5.1561   26.6955 C   0  0  0  0  0  0  0  0  0  0  0  0
    2.3063  -10.0533   30.0125 C   0  0  0  0  0  0  0  0  0  0  0  0
    1.8591   -6.8254   27.4685 N   0  0  0  0  0  0  0  0  0  0  0  0
   -0.2167  -12.1055   18.5568 C   0  0  0  0  0  0  0  0  0  0  0  0
   -2.0661  -10.6994   18.1916 C   0  0  0  0  0  0  0  0  0  0  0  0
    5.2703   -7.5691   27.1123 C   0  0  0  0  0  0  0  0  0  0  0  0
    1.6204   -9.9887   17.2935 C   0  0  0  0  0  0  0  0  0  0  0  0
    1.8931   -7.9265   16.2047 C   0  0  0  0  0  0  0  0  0  0  0  0
    2.4396   -9.0801   16.7132 C   0  0  0  0  0  0  0  0  0  0  0  0
   -0.2575   -8.6234   16.8582 C   0  0  0  0  0  0  0  0  0  0  0  0
    4.0614   -7.0367   27.0106 N   0  0  0  0  0  0  0  0  0  0  0  0
   -2.9133  -11.6279   18.7578 C   0  0  0  0  0  0  0  0  0  0  0  0
    4.5688  -10.1291   29.5758 C   0  0  0  0  0  0  0  0  0  0  0  0
    2.1008   -9.0410   29.1852 N   0  0  0  0  0  0  0  0  0  0  0  0
    3.4829  -10.5697   30.2091 N   0  0  0  0  0  0  0  0  0  0  0  0
   -0.3363   -6.1172   27.5628 C   0  0  0  0  0  0  0  0  0  0  0  0
    3.0331   -7.4400   27.6362 C   0  0  0  0  0  0  0  0  0  0  0  0
    5.4553   -8.5933   27.9644 C   0  0  0  0  0  0  0  0  0  0  0  0
   -2.3870  -12.8440   19.2512 C   0  0  0  0  0  0  0  0  0  0  0  0
    0.5331   -7.6964   16.2751 C   0  0  0  0  0  0  0  0  0  0  0  0
   -0.6740  -10.8737   18.0482 C   0  0  0  0  0  0  0  0  0  0  0  0
    5.6751  -10.5870   29.7637 O   0  0  0  0  0  0  0  0  0  0  0  0
    1.7612   -5.6483   26.7172 C   0  0  0  0  0  0  0  0  0  0  0  0
    0.2221   -9.8326   17.4055 C   0  0  0  0  0  0  0  0  0  0  0  0
    4.3850   -9.0730   28.6745 C   0  0  0  0  0  0  0  0  0  0  0  0
  1  7  4  0
  1 22  4  0
  2 17  4  0
  2 20  4  0
  2 28  4  0
  3  6  1  0
  3 19  1  0
  4 19  1  0
  4 26  1  0
  5 17  4  0
  5 18  4  0
  6 20  1  0
  6 26  1  0
  7 24  4  0
  8 15  4  0
  8 24  4  0
  9 14  4  0
  9 21  4  0
 10 12  4  0
 10 27  4  0
 11 12  4  0
 11 23  4  0
 13 23  4  0
 13 27  4  0
 14 20  4  0
 15 22  4  0
 16 18  4  0
 16 25  2  0
 16 28  4  0
 21 28  4  0
 24 27  1  0
M  END
$$$$

 Created by Python create_sdf_string function

 28 31  0  0  0  0  0  0  0  0999 V2000
   -1.0054  -13.0622   19.1198 C   0  0  0  0  0  0  0  0  0  0  0  0
    3.1478   -8.5360   28.5161 C   0  0  0  0  0  0  0  0  0  0  0  0
    0.5798   -7.1906   27.9330 C   0  0  0  0  0  0  0  0  0  0  0  0
    0.3978   -5.1561   26.6955 C   0  0  0  0  0  0  0  0  0  0  0  0
    2.3063  -10.0533   30.0125 C   0  0  0  0  0  0  0  0  0  0  0  0
    1.8591   -6.8254   27.4685 N   0  0  0  0  0  0  0  0  0  0  0  0
   -0.2167  -12.1055   18.5568 C   0  0  0  0  0  0  0  0  0  0  0  0
   -2.0661  -10.6994   18.1916 C   0  0  0  0  0  0  0  0  0  0  0  0
    5.2703   -7.5691   27.1123 C   0  0  0  0  0  0  0  0  0  0  0  0
    1.6204   -9.9887   17.2935 C   0  0  0  0  0  0  0  0  0  0  0  0
    1.8931   -7.9265   16.2047 C   0  0  0  0  0  0  0  0  0  0  0  0
    2.4396   -9.0801   16.7132 C   0  0  0  0  0  0  0  0  0  0  0  0
   -0.2575   -8.6234   16.8582 C   0  0  0  0  0  0  0  0  0  0  0  0
    4.0614   -7.0367   27.0106 N   0  0  0  0  0  0  0  0  0  0  0  0
   -2.9133  -11.6279   18.7578 C   0  0  0  0  0  0  0  0  0  0  0  0
    4.5688  -10.1291   29.5758 C   0  0  0  0  0  0  0  0  0  0  0  0
    2.1008   -9.0410   29.1852 N   0  0  0  0  0  0  0  0  0  0  0  0
    3.4829  -10.5697   30.2091 N   0  0  0  0  0  0  0  0  0  0  0  0
   -0.3363   -6.1172   27.5628 C   0  0  0  0  0  0  0  0  0  0  0  0
    3.0331   -7.4400   27.6362 C   0  0  0  0  0  0  0  0  0  0  0  0
    5.4553   -8.5933   27.9644 C   0  0  0  0  0  0  0  0  0  0  0  0
   -2.3870  -12.8440   19.2512 C   0  0  0  0  0  0  0  0  0  0  0  0
    0.5331   -7.6964   16.2751 C   0  0  0  0  0  0  0  0  0  0  0  0
   -0.6740  -10.8737   18.0482 C   0  0  0  0  0  0  0  0  0  0  0  0
    5.6751  -10.5870   29.7637 O   0  0  0  0  0  0  0  0  0  0  0  0
    1.7612   -5.6483   26.7172 C   0  0  0  0  0  0  0  0  0  0  0  0
    0.2221   -9.8326   17.4055 C   0  0  0  0  0  0  0  0  0  0  0  0
    4.3850   -9.0730   28.6745 C   0  0  0  0  0  0  0  0  0  0  0  0
  1  7  4  0
  1 22  4  0
  2 17  4  0
  2 20  4  0
  2 28  4  0
  3  6  1  0
  3 19  1  0
  4 19  1  0
  4 26  1  0
  5 17  4  0
  5 18  4  0
  6 20  1  0
  6 26  1  0
  7 24  4  0
  8 15  4  0
  8 24  4  0
  9 14  4  0
  9 21  4  0
 10 12  4  0
 10 27  4  0
 11 12  4  0
 11 23  4  0
 13 23  4  0
 13 27  4  0
 14 20  4  0
 15 22  4  0
 16 18  4  0
 16 25  2  0
 16 28  4  0
 21 28  4  0
 24 27  1  0
M  END
$$$$

 Created by Python create_sdf_string function

 28 31  0  0  0  0  0  0  0  0999 V2000
   -1.0054  -13.0622   19.1198 C   0  0  0  0  0  0  0  0  0  0  0  0
    3.1478   -8.5360   28.5161 C   0  0  0  0  0  0  0  0  0  0  0  0
    0.5798   -7.1906   27.9330 C   0  0  0  0  0  0  0  0  0  0  0  0
    0.3978   -5.1561   26.6955 C   0  0  0  0  0  0  0  0  0  0  0  0
    2.3063  -10.0533   30.0125 C   0  0  0  0  0  0  0  0  0  0  0  0
    1.8591   -6.8254   27.4685 N   0  0  0  0  0  0  0  0  0  0  0  0
   -0.2167  -12.1055   18.5568 C   0  0  0  0  0  0  0  0  0  0  0  0
   -2.0661  -10.6994   18.1916 C   0  0  0  0  0  0  0  0  0  0  0  0
    5.2703   -7.5691   27.1123 C   0  0  0  0  0  0  0  0  0  0  0  0
    1.6204   -9.9887   17.2935 C   0  0  0  0  0  0  0  0  0  0  0  0
    1.8931   -7.9265   16.2047 C   0  0  0  0  0  0  0  0  0  0  0  0
    2.4396   -9.0801   16.7132 C   0  0  0  0  0  0  0  0  0  0  0  0
   -0.2575   -8.6234   16.8582 C   0  0  0  0  0  0  0  0  0  0  0  0
    4.0614   -7.0367   27.0106 N   0  0  0  0  0  0  0  0  0  0  0  0
   -2.9133  -11.6279   18.7578 C   0  0  0  0  0  0  0  0  0  0  0  0
    4.5688  -10.1291   29.5758 C   0  0  0  0  0  0  0  0  0  0  0  0
    2.1008   -9.0410   29.1852 N   0  0  0  0  0  0  0  0  0  0  0  0
    3.4829  -10.5697   30.2091 N   0  0  0  0  0  0  0  0  0  0  0  0
   -0.3363   -6.1172   27.5628 C   0  0  0  0  0  0  0  0  0  0  0  0
    3.0331   -7.4400   27.6362 C   0  0  0  0  0  0  0  0  0  0  0  0
    5.4553   -8.5933   27.9644 C   0  0  0  0  0  0  0  0  0  0  0  0
   -2.3870  -12.8440   19.2512 C   0  0  0  0  0  0  0  0  0  0  0  0
    0.5331   -7.6964   16.2751 C   0  0  0  0  0  0  0  0  0  0  0  0
   -0.6740  -10.8737   18.0482 C   0  0  0  0  0  0  0  0  0  0  0  0
    5.6751  -10.5870   29.7637 O   0  0  0  0  0  0  0  0  0  0  0  0
    1.7612   -5.6483   26.7172 C   0  0  0  0  0  0  0  0  0  0  0  0
    0.2221   -9.8326   17.4055 C   0  0  0  0  0  0  0  0  0  0  0  0
    4.3850   -9.0730   28.6745 C   0  0  0  0  0  0  0  0  0  0  0  0
  1  7  4  0
  1 22  4  0
  2 17  4  0
  2 20  4  0
  2 28  4  0
  3  6  1  0
  3 19  1  0
  4 19  1  0
  4 26  1  0
  5 17  4  0
  5 18  4  0
  6 20  1  0
  6 26  1  0
  7 24  4  0
  8 15  4  0
  8 24  4  0
  9 14  4  0
  9 21  4  0
 10 12  4  0
 10 27  4  0
 11 12  4  0
 11 23  4  0
 13 23  4  0
 13 27  4  0
 14 20  4  0
 15 22  4  0
 16 18  4  0
 16 25  2  0
 16 28  4  0
 21 28  4  0
 24 27  1  0
M  END
$$$$

 Created by Python create_sdf_string function

 28 31  0  0  0  0  0  0  0  0999 V2000
   -1.0054  -13.0622   19.1198 C   0  0  0  0  0  0  0  0  0  0  0  0
    3.1478   -8.5360   28.5161 C   0  0  0  0  0  0  0  0  0  0  0  0
    0.5798   -7.1906   27.9330 C   0  0  0  0  0  0  0  0  0  0  0  0
    0.3978   -5.1561   26.6955 C   0  0  0  0  0  0  0  0  0  0  0  0
    2.3063  -10.0533   30.0125 C   0  0  0  0  0  0  0  0  0  0  0  0
    1.8591   -6.8254   27.4685 N   0  0  0  0  0  0  0  0  0  0  0  0
   -0.2167  -12.1055   18.5568 C   0  0  0  0  0  0  0  0  0  0  0  0
   -2.0661  -10.6994   18.1916 C   0  0  0  0  0  0  0  0  0  0  0  0
    5.2703   -7.5691   27.1123 C   0  0  0  0  0  0  0  0  0  0  0  0
    1.6204   -9.9887   17.2935 C   0  0  0  0  0  0  0  0  0  0  0  0
    1.8931   -7.9265   16.2047 C   0  0  0  0  0  0  0  0  0  0  0  0
    2.4396   -9.0801   16.7132 C   0  0  0  0  0  0  0  0  0  0  0  0
   -0.2575   -8.6234   16.8582 C   0  0  0  0  0  0  0  0  0  0  0  0
    4.0614   -7.0367   27.0106 N   0  0  0  0  0  0  0  0  0  0  0  0
   -2.9133  -11.6279   18.7578 C   0  0  0  0  0  0  0  0  0  0  0  0
    4.5688  -10.1291   29.5758 C   0  0  0  0  0  0  0  0  0  0  0  0
    2.1008   -9.0410   29.1852 N   0  0  0  0  0  0  0  0  0  0  0  0
    3.4829  -10.5697   30.2091 N   0  0  0  0  0  0  0  0  0  0  0  0
   -0.3363   -6.1172   27.5628 C   0  0  0  0  0  0  0  0  0  0  0  0
    3.0331   -7.4400   27.6362 C   0  0  0  0  0  0  0  0  0  0  0  0
    5.4553   -8.5933   27.9644 C   0  0  0  0  0  0  0  0  0  0  0  0
   -2.3870  -12.8440   19.2512 C   0  0  0  0  0  0  0  0  0  0  0  0
    0.5331   -7.6964   16.2751 C   0  0  0  0  0  0  0  0  0  0  0  0
   -0.6740  -10.8737   18.0482 C   0  0  0  0  0  0  0  0  0  0  0  0
    5.6751  -10.5870   29.7637 O   0  0  0  0  0  0  0  0  0  0  0  0
    1.7612   -5.6483   26.7172 C   0  0  0  0  0  0  0  0  0  0  0  0
    0.2221   -9.8326   17.4055 C   0  0  0  0  0  0  0  0  0  0  0  0
    4.3850   -9.0730   28.6745 C   0  0  0  0  0  0  0  0  0  0  0  0
  1  7  4  0
  1 22  4  0
  2 17  4  0
  2 20  4  0
  2 28  4  0
  3  6  1  0
  3 19  1  0
  4 19  1  0
  4 26  1  0
  5 17  4  0
  5 18  4  0
  6 20  1  0
  6 26  1  0
  7 24  4  0
  8 15  4  0
  8 24  4  0
  9 14  4  0
  9 21  4  0
 10 12  4  0
 10 27  4  0
 11 12  4  0
 11 23  4  0
 13 23  4  0
 13 27  4  0
 14 20  4  0
 15 22  4  0
 16 18  4  0
 16 25  2  0
 16 28  4  0
 21 28  4  0
 24 27  1  0
M  END
$$$$

 Created by Python create_sdf_string function

 28 31  0  0  0  0  0  0  0  0999 V2000
   -1.0054  -13.0622   19.1198 C   0  0  0  0  0  0  0  0  0  0  0  0
    3.1478   -8.5360   28.5161 C   0  0  0  0  0  0  0  0  0  0  0  0
    0.5798   -7.1906   27.9330 C   0  0  0  0  0  0  0  0  0  0  0  0
    0.3978   -5.1561   26.6955 C   0  0  0  0  0  0  0  0  0  0  0  0
    2.3063  -10.0533   30.0125 C   0  0  0  0  0  0  0  0  0  0  0  0
    1.8591   -6.8254   27.4685 N   0  0  0  0  0  0  0  0  0  0  0  0
   -0.2167  -12.1055   18.5568 C   0  0  0  0  0  0  0  0  0  0  0  0
   -2.0661  -10.6994   18.1916 C   0  0  0  0  0  0  0  0  0  0  0  0
    5.2703   -7.5691   27.1123 C   0  0  0  0  0  0  0  0  0  0  0  0
    1.6204   -9.9887   17.2935 C   0  0  0  0  0  0  0  0  0  0  0  0
    1.8931   -7.9265   16.2047 C   0  0  0  0  0  0  0  0  0  0  0  0
    2.4396   -9.0801   16.7132 C   0  0  0  0  0  0  0  0  0  0  0  0
   -0.2575   -8.6234   16.8582 C   0  0  0  0  0  0  0  0  0  0  0  0
    4.0614   -7.0367   27.0106 N   0  0  0  0  0  0  0  0  0  0  0  0
   -2.9133  -11.6279   18.7578 C   0  0  0  0  0  0  0  0  0  0  0  0
    4.5688  -10.1291   29.5758 C   0  0  0  0  0  0  0  0  0  0  0  0
    2.1008   -9.0410   29.1852 N   0  0  0  0  0  0  0  0  0  0  0  0
    3.4829  -10.5697   30.2091 N   0  0  0  0  0  0  0  0  0  0  0  0
   -0.3363   -6.1172   27.5628 C   0  0  0  0  0  0  0  0  0  0  0  0
    3.0331   -7.4400   27.6362 C   0  0  0  0  0  0  0  0  0  0  0  0
    5.4553   -8.5933   27.9644 C   0  0  0  0  0  0  0  0  0  0  0  0
   -2.3870  -12.8440   19.2512 C   0  0  0  0  0  0  0  0  0  0  0  0
    0.5331   -7.6964   16.2751 C   0  0  0  0  0  0  0  0  0  0  0  0
   -0.6740  -10.8737   18.0482 C   0  0  0  0  0  0  0  0  0  0  0  0
    5.6751  -10.5870   29.7637 O   0  0  0  0  0  0  0  0  0  0  0  0
    1.7612   -5.6483   26.7172 C   0  0  0  0  0  0  0  0  0  0  0  0
    0.2221   -9.8326   17.4055 C   0  0  0  0  0  0  0  0  0  0  0  0
    4.3850   -9.0730   28.6745 C   0  0  0  0  0  0  0  0  0  0  0  0
  1  7  4  0
  1 22  4  0
  2 17  4  0
  2 20  4  0
  2 28  4  0
  3  6  1  0
  3 19  1  0
  4 19  1  0
  4 26  1  0
  5 17  4  0
  5 18  4  0
  6 20  1  0
  6 26  1  0
  7 24  4  0
  8 15  4  0
  8 24  4  0
  9 14  4  0
  9 21  4  0
 10 12  4  0
 10 27  4  0
 11 12  4  0
 11 23  4  0
 13 23  4  0
 13 27  4  0
 14 20  4  0
 15 22  4  0
 16 18  4  0
 16 25  2  0
 16 28  4  0
 21 28  4  0
 24 27  1  0
M  END
$$$$

 Created by Python create_sdf_string function

 28 31  0  0  0  0  0  0  0  0999 V2000
   -1.0054  -13.0622   19.1198 C   0  0  0  0  0  0  0  0  0  0  0  0
    3.1478   -8.5360   28.5161 C   0  0  0  0  0  0  0  0  0  0  0  0
    0.5798   -7.1906   27.9330 C   0  0  0  0  0  0  0  0  0  0  0  0
    0.3978   -5.1561   26.6955 C   0  0  0  0  0  0  0  0  0  0  0  0
    2.3063  -10.0533   30.0125 C   0  0  0  0  0  0  0  0  0  0  0  0
    1.8591   -6.8254   27.4685 N   0  0  0  0  0  0  0  0  0  0  0  0
   -0.2167  -12.1055   18.5568 C   0  0  0  0  0  0  0  0  0  0  0  0
   -2.0661  -10.6994   18.1916 C   0  0  0  0  0  0  0  0  0  0  0  0
    5.2703   -7.5691   27.1123 C   0  0  0  0  0  0  0  0  0  0  0  0
    1.6204   -9.9887   17.2935 C   0  0  0  0  0  0  0  0  0  0  0  0
    1.8931   -7.9265   16.2047 C   0  0  0  0  0  0  0  0  0  0  0  0
    2.4396   -9.0801   16.7132 C   0  0  0  0  0  0  0  0  0  0  0  0
   -0.2575   -8.6234   16.8582 C   0  0  0  0  0  0  0  0  0  0  0  0
    4.0614   -7.0367   27.0106 N   0  0  0  0  0  0  0  0  0  0  0  0
   -2.9133  -11.6279   18.7578 C   0  0  0  0  0  0  0  0  0  0  0  0
    4.5688  -10.1291   29.5758 C   0  0  0  0  0  0  0  0  0  0  0  0
    2.1008   -9.0410   29.1852 N   0  0  0  0  0  0  0  0  0  0  0  0
    3.4829  -10.5697   30.2091 N   0  0  0  0  0  0  0  0  0  0  0  0
   -0.3363   -6.1172   27.5628 C   0  0  0  0  0  0  0  0  0  0  0  0
    3.0331   -7.4400   27.6362 C   0  0  0  0  0  0  0  0  0  0  0  0
    5.4553   -8.5933   27.9644 C   0  0  0  0  0  0  0  0  0  0  0  0
   -2.3870  -12.8440   19.2512 C   0  0  0  0  0  0  0  0  0  0  0  0
    0.5331   -7.6964   16.2751 C   0  0  0  0  0  0  0  0  0  0  0  0
   -0.6740  -10.8737   18.0482 C   0  0  0  0  0  0  0  0  0  0  0  0
    5.6751  -10.5870   29.7637 O   0  0  0  0  0  0  0  0  0  0  0  0
    1.7612   -5.6483   26.7172 C   0  0  0  0  0  0  0  0  0  0  0  0
    0.2221   -9.8326   17.4055 C   0  0  0  0  0  0  0  0  0  0  0  0
    4.3850   -9.0730   28.6745 C   0  0  0  0  0  0  0  0  0  0  0  0
  1  7  4  0
  1 22  4  0
  2 17  4  0
  2 20  4  0
  2 28  4  0
  3  6  1  0
  3 19  1  0
  4 19  1  0
  4 26  1  0
  5 17  4  0
  5 18  4  0
  6 20  1  0
  6 26  1  0
  7 24  4  0
  8 15  4  0
  8 24  4  0
  9 14  4  0
  9 21  4  0
 10 12  4  0
 10 27  4  0
 11 12  4  0
 11 23  4  0
 13 23  4  0
 13 27  4  0
 14 20  4  0
 15 22  4  0
 16 18  4  0
 16 25  2  0
 16 28  4  0
 21 28  4  0
 24 27  1  0
M  END
$$$$

 Created by Python create_sdf_string function

 28 31  0  0  0  0  0  0  0  0999 V2000
   -1.0054  -13.0622   19.1198 C   0  0  0  0  0  0  0  0  0  0  0  0
    3.1478   -8.5360   28.5161 C   0  0  0  0  0  0  0  0  0  0  0  0
    0.5798   -7.1906   27.9330 C   0  0  0  0  0  0  0  0  0  0  0  0
    0.3978   -5.1561   26.6955 C   0  0  0  0  0  0  0  0  0  0  0  0
    2.3063  -10.0533   30.0125 C   0  0  0  0  0  0  0  0  0  0  0  0
    1.8591   -6.8254   27.4685 N   0  0  0  0  0  0  0  0  0  0  0  0
   -0.2167  -12.1055   18.5568 C   0  0  0  0  0  0  0  0  0  0  0  0
   -2.0661  -10.6994   18.1916 C   0  0  0  0  0  0  0  0  0  0  0  0
    5.2703   -7.5691   27.1123 C   0  0  0  0  0  0  0  0  0  0  0  0
    1.6204   -9.9887   17.2935 C   0  0  0  0  0  0  0  0  0  0  0  0
    1.8931   -7.9265   16.2047 C   0  0  0  0  0  0  0  0  0  0  0  0
    2.4396   -9.0801   16.7132 C   0  0  0  0  0  0  0  0  0  0  0  0
   -0.2575   -8.6234   16.8582 C   0  0  0  0  0  0  0  0  0  0  0  0
    4.0614   -7.0367   27.0106 N   0  0  0  0  0  0  0  0  0  0  0  0
   -2.9133  -11.6279   18.7578 C   0  0  0  0  0  0  0  0  0  0  0  0
    4.5688  -10.1291   29.5758 C   0  0  0  0  0  0  0  0  0  0  0  0
    2.1008   -9.0410   29.1852 N   0  0  0  0  0  0  0  0  0  0  0  0
    3.4829  -10.5697   30.2091 N   0  0  0  0  0  0  0  0  0  0  0  0
   -0.3363   -6.1172   27.5628 C   0  0  0  0  0  0  0  0  0  0  0  0
    3.0331   -7.4400   27.6362 C   0  0  0  0  0  0  0  0  0  0  0  0
    5.4553   -8.5933   27.9644 C   0  0  0  0  0  0  0  0  0  0  0  0
   -2.3870  -12.8440   19.2512 C   0  0  0  0  0  0  0  0  0  0  0  0
    0.5331   -7.6964   16.2751 C   0  0  0  0  0  0  0  0  0  0  0  0
   -0.6740  -10.8737   18.0482 C   0  0  0  0  0  0  0  0  0  0  0  0
    5.6751  -10.5870   29.7637 O   0  0  0  0  0  0  0  0  0  0  0  0
    1.7612   -5.6483   26.7172 C   0  0  0  0  0  0  0  0  0  0  0  0
    0.2221   -9.8326   17.4055 C   0  0  0  0  0  0  0  0  0  0  0  0
    4.3850   -9.0730   28.6745 C   0  0  0  0  0  0  0  0  0  0  0  0
  1  7  4  0
  1 22  4  0
  2 17  4  0
  2 20  4  0
  2 28  4  0
  3  6  1  0
  3 19  1  0
  4 19  1  0
  4 26  1  0
  5 17  4  0
  5 18  4  0
  6 20  1  0
  6 26  1  0
  7 24  4  0
  8 15  4  0
  8 24  4  0
  9 14  4  0
  9 21  4  0
 10 12  4  0
 10 27  4  0
 11 12  4  0
 11 23  4  0
 13 23  4  0
 13 27  4  0
 14 20  4  0
 15 22  4  0
 16 18  4  0
 16 25  2  0
 16 28  4  0
 21 28  4  0
 24 27  1  0
M  END
$$$$

 Created by Python create_sdf_string function

 28 31  0  0  0  0  0  0  0  0999 V2000
   -1.0054  -13.0622   19.1198 C   0  0  0  0  0  0  0  0  0  0  0  0
    3.1478   -8.5360   28.5161 C   0  0  0  0  0  0  0  0  0  0  0  0
    0.5798   -7.1906   27.9330 C   0  0  0  0  0  0  0  0  0  0  0  0
    0.3978   -5.1561   26.6955 C   0  0  0  0  0  0  0  0  0  0  0  0
    2.3063  -10.0533   30.0125 C   0  0  0  0  0  0  0  0  0  0  0  0
    1.8591   -6.8254   27.4685 N   0  0  0  0  0  0  0  0  0  0  0  0
   -0.2167  -12.1055   18.5568 C   0  0  0  0  0  0  0  0  0  0  0  0
   -2.0661  -10.6994   18.1916 C   0  0  0  0  0  0  0  0  0  0  0  0
    5.2703   -7.5691   27.1123 C   0  0  0  0  0  0  0  0  0  0  0  0
    1.6204   -9.9887   17.2935 C   0  0  0  0  0  0  0  0  0  0  0  0
    1.8931   -7.9265   16.2047 C   0  0  0  0  0  0  0  0  0  0  0  0
    2.4396   -9.0801   16.7132 C   0  0  0  0  0  0  0  0  0  0  0  0
   -0.2575   -8.6234   16.8582 C   0  0  0  0  0  0  0  0  0  0  0  0
    4.0614   -7.0367   27.0106 N   0  0  0  0  0  0  0  0  0  0  0  0
   -2.9133  -11.6279   18.7578 C   0  0  0  0  0  0  0  0  0  0  0  0
    4.5688  -10.1291   29.5758 C   0  0  0  0  0  0  0  0  0  0  0  0
    2.1008   -9.0410   29.1852 N   0  0  0  0  0  0  0  0  0  0  0  0
    3.4829  -10.5697   30.2091 N   0  0  0  0  0  0  0  0  0  0  0  0
   -0.3363   -6.1172   27.5628 C   0  0  0  0  0  0  0  0  0  0  0  0
    3.0331   -7.4400   27.6362 C   0  0  0  0  0  0  0  0  0  0  0  0
    5.4553   -8.5933   27.9644 C   0  0  0  0  0  0  0  0  0  0  0  0
   -2.3870  -12.8440   19.2512 C   0  0  0  0  0  0  0  0  0  0  0  0
    0.5331   -7.6964   16.2751 C   0  0  0  0  0  0  0  0  0  0  0  0
   -0.6740  -10.8737   18.0482 C   0  0  0  0  0  0  0  0  0  0  0  0
    5.6751  -10.5870   29.7637 O   0  0  0  0  0  0  0  0  0  0  0  0
    1.7612   -5.6483   26.7172 C   0  0  0  0  0  0  0  0  0  0  0  0
    0.2221   -9.8326   17.4055 C   0  0  0  0  0  0  0  0  0  0  0  0
    4.3850   -9.0730   28.6745 C   0  0  0  0  0  0  0  0  0  0  0  0
  1  7  4  0
  1 22  4  0
  2 17  4  0
  2 20  4  0
  2 28  4  0
  3  6  1  0
  3 19  1  0
  4 19  1  0
  4 26  1  0
  5 17  4  0
  5 18  4  0
  6 20  1  0
  6 26  1  0
  7 24  4  0
  8 15  4  0
  8 24  4  0
  9 14  4  0
  9 21  4  0
 10 12  4  0
 10 27  4  0
 11 12  4  0
 11 23  4  0
 13 23  4  0
 13 27  4  0
 14 20  4  0
 15 22  4  0
 16 18  4  0
 16 25  2  0
 16 28  4  0
 21 28  4  0
 24 27  1  0
M  END
$$$$

 Created by Python create_sdf_string function

 28 31  0  0  0  0  0  0  0  0999 V2000
   -1.0054  -13.0622   19.1198 C   0  0  0  0  0  0  0  0  0  0  0  0
    3.1478   -8.5360   28.5161 C   0  0  0  0  0  0  0  0  0  0  0  0
    0.5798   -7.1906   27.9330 C   0  0  0  0  0  0  0  0  0  0  0  0
    0.3978   -5.1561   26.6955 C   0  0  0  0  0  0  0  0  0  0  0  0
    2.3063  -10.0533   30.0125 C   0  0  0  0  0  0  0  0  0  0  0  0
    1.8591   -6.8254   27.4685 N   0  0  0  0  0  0  0  0  0  0  0  0
   -0.2167  -12.1055   18.5568 C   0  0  0  0  0  0  0  0  0  0  0  0
   -2.0661  -10.6994   18.1916 C   0  0  0  0  0  0  0  0  0  0  0  0
    5.2703   -7.5691   27.1123 C   0  0  0  0  0  0  0  0  0  0  0  0
    1.6204   -9.9887   17.2935 C   0  0  0  0  0  0  0  0  0  0  0  0
    1.8931   -7.9265   16.2047 C   0  0  0  0  0  0  0  0  0  0  0  0
    2.4396   -9.0801   16.7132 C   0  0  0  0  0  0  0  0  0  0  0  0
   -0.2575   -8.6234   16.8582 C   0  0  0  0  0  0  0  0  0  0  0  0
    4.0614   -7.0367   27.0106 N   0  0  0  0  0  0  0  0  0  0  0  0
   -2.9133  -11.6279   18.7578 C   0  0  0  0  0  0  0  0  0  0  0  0
    4.5688  -10.1291   29.5758 C   0  0  0  0  0  0  0  0  0  0  0  0
    2.1008   -9.0410   29.1852 N   0  0  0  0  0  0  0  0  0  0  0  0
    3.4829  -10.5697   30.2091 N   0  0  0  0  0  0  0  0  0  0  0  0
   -0.3363   -6.1172   27.5628 C   0  0  0  0  0  0  0  0  0  0  0  0
    3.0331   -7.4400   27.6362 C   0  0  0  0  0  0  0  0  0  0  0  0
    5.4553   -8.5933   27.9644 C   0  0  0  0  0  0  0  0  0  0  0  0
   -2.3870  -12.8440   19.2512 C   0  0  0  0  0  0  0  0  0  0  0  0
    0.5331   -7.6964   16.2751 C   0  0  0  0  0  0  0  0  0  0  0  0
   -0.6740  -10.8737   18.0482 C   0  0  0  0  0  0  0  0  0  0  0  0
    5.6751  -10.5870   29.7637 O   0  0  0  0  0  0  0  0  0  0  0  0
    1.7612   -5.6483   26.7172 C   0  0  0  0  0  0  0  0  0  0  0  0
    0.2221   -9.8326   17.4055 C   0  0  0  0  0  0  0  0  0  0  0  0
    4.3850   -9.0730   28.6745 C   0  0  0  0  0  0  0  0  0  0  0  0
  1  7  4  0
  1 22  4  0
  2 17  4  0
  2 20  4  0
  2 28  4  0
  3  6  1  0
  3 19  1  0
  4 19  1  0
  4 26  1  0
  5 17  4  0
  5 18  4  0
  6 20  1  0
  6 26  1  0
  7 24  4  0
  8 15  4  0
  8 24  4  0
  9 14  4  0
  9 21  4  0
 10 12  4  0
 10 27  4  0
 11 12  4  0
 11 23  4  0
 13 23  4  0
 13 27  4  0
 14 20  4  0
 15 22  4  0
 16 18  4  0
 16 25  2  0
 16 28  4  0
 21 28  4  0
 24 27  1  0
M  END
$$$$

 Created by Python create_sdf_string function

 28 31  0  0  0  0  0  0  0  0999 V2000
   -1.0054  -13.0622   19.1198 C   0  0  0  0  0  0  0  0  0  0  0  0
    3.1478   -8.5360   28.5161 C   0  0  0  0  0  0  0  0  0  0  0  0
    0.5798   -7.1906   27.9330 C   0  0  0  0  0  0  0  0  0  0  0  0
    0.3978   -5.1561   26.6955 C   0  0  0  0  0  0  0  0  0  0  0  0
    2.3063  -10.0533   30.0125 C   0  0  0  0  0  0  0  0  0  0  0  0
    1.8591   -6.8254   27.4685 N   0  0  0  0  0  0  0  0  0  0  0  0
   -0.2167  -12.1055   18.5568 C   0  0  0  0  0  0  0  0  0  0  0  0
   -2.0661  -10.6994   18.1916 C   0  0  0  0  0  0  0  0  0  0  0  0
    5.2703   -7.5691   27.1123 C   0  0  0  0  0  0  0  0  0  0  0  0
    1.6204   -9.9887   17.2935 C   0  0  0  0  0  0  0  0  0  0  0  0
    1.8931   -7.9265   16.2047 C   0  0  0  0  0  0  0  0  0  0  0  0
    2.4396   -9.0801   16.7132 C   0  0  0  0  0  0  0  0  0  0  0  0
   -0.2575   -8.6234   16.8582 C   0  0  0  0  0  0  0  0  0  0  0  0
    4.0614   -7.0367   27.0106 N   0  0  0  0  0  0  0  0  0  0  0  0
   -2.9133  -11.6279   18.7578 C   0  0  0  0  0  0  0  0  0  0  0  0
    4.5688  -10.1291   29.5758 C   0  0  0  0  0  0  0  0  0  0  0  0
    2.1008   -9.0410   29.1852 N   0  0  0  0  0  0  0  0  0  0  0  0
    3.4829  -10.5697   30.2091 N   0  0  0  0  0  0  0  0  0  0  0  0
   -0.3363   -6.1172   27.5628 C   0  0  0  0  0  0  0  0  0  0  0  0
    3.0331   -7.4400   27.6362 C   0  0  0  0  0  0  0  0  0  0  0  0
    5.4553   -8.5933   27.9644 C   0  0  0  0  0  0  0  0  0  0  0  0
   -2.3870  -12.8440   19.2512 C   0  0  0  0  0  0  0  0  0  0  0  0
    0.5331   -7.6964   16.2751 C   0  0  0  0  0  0  0  0  0  0  0  0
   -0.6740  -10.8737   18.0482 C   0  0  0  0  0  0  0  0  0  0  0  0
    5.6751  -10.5870   29.7637 O   0  0  0  0  0  0  0  0  0  0  0  0
    1.7612   -5.6483   26.7172 C   0  0  0  0  0  0  0  0  0  0  0  0
    0.2221   -9.8326   17.4055 C   0  0  0  0  0  0  0  0  0  0  0  0
    4.3850   -9.0730   28.6745 C   0  0  0  0  0  0  0  0  0  0  0  0
  1  7  4  0
  1 22  4  0
  2 17  4  0
  2 20  4  0
  2 28  4  0
  3  6  1  0
  3 19  1  0
  4 19  1  0
  4 26  1  0
  5 17  4  0
  5 18  4  0
  6 20  1  0
  6 26  1  0
  7 24  4  0
  8 15  4  0
  8 24  4  0
  9 14  4  0
  9 21  4  0
 10 12  4  0
 10 27  4  0
 11 12  4  0
 11 23  4  0
 13 23  4  0
 13 27  4  0
 14 20  4  0
 15 22  4  0
 16 18  4  0
 16 25  2  0
 16 28  4  0
 21 28  4  0
 24 27  1  0
M  END
$$$$

 Created by Python create_sdf_string function

 28 31  0  0  0  0  0  0  0  0999 V2000
   -1.0054  -13.0622   19.1198 C   0  0  0  0  0  0  0  0  0  0  0  0
    3.1478   -8.5360   28.5161 C   0  0  0  0  0  0  0  0  0  0  0  0
    0.5798   -7.1906   27.9330 C   0  0  0  0  0  0  0  0  0  0  0  0
    0.3978   -5.1561   26.6955 C   0  0  0  0  0  0  0  0  0  0  0  0
    2.3063  -10.0533   30.0125 C   0  0  0  0  0  0  0  0  0  0  0  0
    1.8591   -6.8254   27.4685 N   0  0  0  0  0  0  0  0  0  0  0  0
   -0.2167  -12.1055   18.5568 C   0  0  0  0  0  0  0  0  0  0  0  0
   -2.0661  -10.6994   18.1916 C   0  0  0  0  0  0  0  0  0  0  0  0
    5.2703   -7.5691   27.1123 C   0  0  0  0  0  0  0  0  0  0  0  0
    1.6204   -9.9887   17.2935 C   0  0  0  0  0  0  0  0  0  0  0  0
    1.8931   -7.9265   16.2047 C   0  0  0  0  0  0  0  0  0  0  0  0
    2.4396   -9.0801   16.7132 C   0  0  0  0  0  0  0  0  0  0  0  0
   -0.2575   -8.6234   16.8582 C   0  0  0  0  0  0  0  0  0  0  0  0
    4.0614   -7.0367   27.0106 N   0  0  0  0  0  0  0  0  0  0  0  0
   -2.9133  -11.6279   18.7578 C   0  0  0  0  0  0  0  0  0  0  0  0
    4.5688  -10.1291   29.5758 C   0  0  0  0  0  0  0  0  0  0  0  0
    2.1008   -9.0410   29.1852 N   0  0  0  0  0  0  0  0  0  0  0  0
    3.4829  -10.5697   30.2091 N   0  0  0  0  0  0  0  0  0  0  0  0
   -0.3363   -6.1172   27.5628 C   0  0  0  0  0  0  0  0  0  0  0  0
    3.0331   -7.4400   27.6362 C   0  0  0  0  0  0  0  0  0  0  0  0
    5.4553   -8.5933   27.9644 C   0  0  0  0  0  0  0  0  0  0  0  0
   -2.3870  -12.8440   19.2512 C   0  0  0  0  0  0  0  0  0  0  0  0
    0.5331   -7.6964   16.2751 C   0  0  0  0  0  0  0  0  0  0  0  0
   -0.6740  -10.8737   18.0482 C   0  0  0  0  0  0  0  0  0  0  0  0
    5.6751  -10.5870   29.7637 O   0  0  0  0  0  0  0  0  0  0  0  0
    1.7612   -5.6483   26.7172 C   0  0  0  0  0  0  0  0  0  0  0  0
    0.2221   -9.8326   17.4055 C   0  0  0  0  0  0  0  0  0  0  0  0
    4.3850   -9.0730   28.6745 C   0  0  0  0  0  0  0  0  0  0  0  0
  1  7  4  0
  1 22  4  0
  2 17  4  0
  2 20  4  0
  2 28  4  0
  3  6  1  0
  3 19  1  0
  4 19  1  0
  4 26  1  0
  5 17  4  0
  5 18  4  0
  6 20  1  0
  6 26  1  0
  7 24  4  0
  8 15  4  0
  8 24  4  0
  9 14  4  0
  9 21  4  0
 10 12  4  0
 10 27  4  0
 11 12  4  0
 11 23  4  0
 13 23  4  0
 13 27  4  0
 14 20  4  0
 15 22  4  0
 16 18  4  0
 16 25  2  0
 16 28  4  0
 21 28  4  0
 24 27  1  0
M  END
$$$$

 Created by Python create_sdf_string function

 28 31  0  0  0  0  0  0  0  0999 V2000
   -1.0054  -13.0622   19.1198 C   0  0  0  0  0  0  0  0  0  0  0  0
    3.1478   -8.5360   28.5161 C   0  0  0  0  0  0  0  0  0  0  0  0
    0.5798   -7.1906   27.9330 C   0  0  0  0  0  0  0  0  0  0  0  0
    0.3978   -5.1561   26.6955 C   0  0  0  0  0  0  0  0  0  0  0  0
    2.3063  -10.0533   30.0125 C   0  0  0  0  0  0  0  0  0  0  0  0
    1.8591   -6.8254   27.4685 N   0  0  0  0  0  0  0  0  0  0  0  0
   -0.2167  -12.1055   18.5568 C   0  0  0  0  0  0  0  0  0  0  0  0
   -2.0661  -10.6994   18.1916 C   0  0  0  0  0  0  0  0  0  0  0  0
    5.2703   -7.5691   27.1123 C   0  0  0  0  0  0  0  0  0  0  0  0
    1.6204   -9.9887   17.2935 C   0  0  0  0  0  0  0  0  0  0  0  0
    1.8931   -7.9265   16.2047 C   0  0  0  0  0  0  0  0  0  0  0  0
    2.4396   -9.0801   16.7132 C   0  0  0  0  0  0  0  0  0  0  0  0
   -0.2575   -8.6234   16.8582 C   0  0  0  0  0  0  0  0  0  0  0  0
    4.0614   -7.0367   27.0106 N   0  0  0  0  0  0  0  0  0  0  0  0
   -2.9133  -11.6279   18.7578 C   0  0  0  0  0  0  0  0  0  0  0  0
    4.5688  -10.1291   29.5758 C   0  0  0  0  0  0  0  0  0  0  0  0
    2.1008   -9.0410   29.1852 N   0  0  0  0  0  0  0  0  0  0  0  0
    3.4829  -10.5697   30.2091 N   0  0  0  0  0  0  0  0  0  0  0  0
   -0.3363   -6.1172   27.5628 C   0  0  0  0  0  0  0  0  0  0  0  0
    3.0331   -7.4400   27.6362 C   0  0  0  0  0  0  0  0  0  0  0  0
    5.4553   -8.5933   27.9644 C   0  0  0  0  0  0  0  0  0  0  0  0
   -2.3870  -12.8440   19.2512 C   0  0  0  0  0  0  0  0  0  0  0  0
    0.5331   -7.6964   16.2751 C   0  0  0  0  0  0  0  0  0  0  0  0
   -0.6740  -10.8737   18.0482 C   0  0  0  0  0  0  0  0  0  0  0  0
    5.6751  -10.5870   29.7637 O   0  0  0  0  0  0  0  0  0  0  0  0
    1.7612   -5.6483   26.7172 C   0  0  0  0  0  0  0  0  0  0  0  0
    0.2221   -9.8326   17.4055 C   0  0  0  0  0  0  0  0  0  0  0  0
    4.3850   -9.0730   28.6745 C   0  0  0  0  0  0  0  0  0  0  0  0
  1  7  4  0
  1 22  4  0
  2 17  4  0
  2 20  4  0
  2 28  4  0
  3  6  1  0
  3 19  1  0
  4 19  1  0
  4 26  1  0
  5 17  4  0
  5 18  4  0
  6 20  1  0
  6 26  1  0
  7 24  4  0
  8 15  4  0
  8 24  4  0
  9 14  4  0
  9 21  4  0
 10 12  4  0
 10 27  4  0
 11 12  4  0
 11 23  4  0
 13 23  4  0
 13 27  4  0
 14 20  4  0
 15 22  4  0
 16 18  4  0
 16 25  2  0
 16 28  4  0
 21 28  4  0
 24 27  1  0
M  END
$$$$

 Created by Python create_sdf_string function

 28 31  0  0  0  0  0  0  0  0999 V2000
   -1.0054  -13.0622   19.1198 C   0  0  0  0  0  0  0  0  0  0  0  0
    3.1478   -8.5360   28.5161 C   0  0  0  0  0  0  0  0  0  0  0  0
    0.5798   -7.1906   27.9330 C   0  0  0  0  0  0  0  0  0  0  0  0
    0.3978   -5.1561   26.6955 C   0  0  0  0  0  0  0  0  0  0  0  0
    2.3063  -10.0533   30.0125 C   0  0  0  0  0  0  0  0  0  0  0  0
    1.8591   -6.8254   27.4685 N   0  0  0  0  0  0  0  0  0  0  0  0
   -0.2167  -12.1055   18.5568 C   0  0  0  0  0  0  0  0  0  0  0  0
   -2.0661  -10.6994   18.1916 C   0  0  0  0  0  0  0  0  0  0  0  0
    5.2703   -7.5691   27.1123 C   0  0  0  0  0  0  0  0  0  0  0  0
    1.6204   -9.9887   17.2935 C   0  0  0  0  0  0  0  0  0  0  0  0
    1.8931   -7.9265   16.2047 C   0  0  0  0  0  0  0  0  0  0  0  0
    2.4396   -9.0801   16.7132 C   0  0  0  0  0  0  0  0  0  0  0  0
   -0.2575   -8.6234   16.8582 C   0  0  0  0  0  0  0  0  0  0  0  0
    4.0614   -7.0367   27.0106 N   0  0  0  0  0  0  0  0  0  0  0  0
   -2.9133  -11.6279   18.7578 C   0  0  0  0  0  0  0  0  0  0  0  0
    4.5688  -10.1291   29.5758 C   0  0  0  0  0  0  0  0  0  0  0  0
    2.1008   -9.0410   29.1852 N   0  0  0  0  0  0  0  0  0  0  0  0
    3.4829  -10.5697   30.2091 N   0  0  0  0  0  0  0  0  0  0  0  0
   -0.3363   -6.1172   27.5628 C   0  0  0  0  0  0  0  0  0  0  0  0
    3.0331   -7.4400   27.6362 C   0  0  0  0  0  0  0  0  0  0  0  0
    5.4553   -8.5933   27.9644 C   0  0  0  0  0  0  0  0  0  0  0  0
   -2.3870  -12.8440   19.2512 C   0  0  0  0  0  0  0  0  0  0  0  0
    0.5331   -7.6964   16.2751 C   0  0  0  0  0  0  0  0  0  0  0  0
   -0.6740  -10.8737   18.0482 C   0  0  0  0  0  0  0  0  0  0  0  0
    5.6751  -10.5870   29.7637 O   0  0  0  0  0  0  0  0  0  0  0  0
    1.7612   -5.6483   26.7172 C   0  0  0  0  0  0  0  0  0  0  0  0
    0.2221   -9.8326   17.4055 C   0  0  0  0  0  0  0  0  0  0  0  0
    4.3850   -9.0730   28.6745 C   0  0  0  0  0  0  0  0  0  0  0  0
  1  7  4  0
  1 22  4  0
  2 17  4  0
  2 20  4  0
  2 28  4  0
  3  6  1  0
  3 19  1  0
  4 19  1  0
  4 26  1  0
  5 17  4  0
  5 18  4  0
  6 20  1  0
  6 26  1  0
  7 24  4  0
  8 15  4  0
  8 24  4  0
  9 14  4  0
  9 21  4  0
 10 12  4  0
 10 27  4  0
 11 12  4  0
 11 23  4  0
 13 23  4  0
 13 27  4  0
 14 20  4  0
 15 22  4  0
 16 18  4  0
 16 25  2  0
 16 28  4  0
 21 28  4  0
 24 27  1  0
M  END
$$$$

 Created by Python create_sdf_string function

 28 31  0  0  0  0  0  0  0  0999 V2000
   -1.0054  -13.0622   19.1198 C   0  0  0  0  0  0  0  0  0  0  0  0
    3.1478   -8.5360   28.5161 C   0  0  0  0  0  0  0  0  0  0  0  0
    0.5798   -7.1906   27.9330 C   0  0  0  0  0  0  0  0  0  0  0  0
    0.3978   -5.1561   26.6955 C   0  0  0  0  0  0  0  0  0  0  0  0
    2.3063  -10.0533   30.0125 C   0  0  0  0  0  0  0  0  0  0  0  0
    1.8591   -6.8254   27.4685 N   0  0  0  0  0  0  0  0  0  0  0  0
   -0.2167  -12.1055   18.5568 C   0  0  0  0  0  0  0  0  0  0  0  0
   -2.0661  -10.6994   18.1916 C   0  0  0  0  0  0  0  0  0  0  0  0
    5.2703   -7.5691   27.1123 C   0  0  0  0  0  0  0  0  0  0  0  0
    1.6204   -9.9887   17.2935 C   0  0  0  0  0  0  0  0  0  0  0  0
    1.8931   -7.9265   16.2047 C   0  0  0  0  0  0  0  0  0  0  0  0
    2.4396   -9.0801   16.7132 C   0  0  0  0  0  0  0  0  0  0  0  0
   -0.2575   -8.6234   16.8582 C   0  0  0  0  0  0  0  0  0  0  0  0
    4.0614   -7.0367   27.0106 N   0  0  0  0  0  0  0  0  0  0  0  0
   -2.9133  -11.6279   18.7578 C   0  0  0  0  0  0  0  0  0  0  0  0
    4.5688  -10.1291   29.5758 C   0  0  0  0  0  0  0  0  0  0  0  0
    2.1008   -9.0410   29.1852 N   0  0  0  0  0  0  0  0  0  0  0  0
    3.4829  -10.5697   30.2091 N   0  0  0  0  0  0  0  0  0  0  0  0
   -0.3363   -6.1172   27.5628 C   0  0  0  0  0  0  0  0  0  0  0  0
    3.0331   -7.4400   27.6362 C   0  0  0  0  0  0  0  0  0  0  0  0
    5.4553   -8.5933   27.9644 C   0  0  0  0  0  0  0  0  0  0  0  0
   -2.3870  -12.8440   19.2512 C   0  0  0  0  0  0  0  0  0  0  0  0
    0.5331   -7.6964   16.2751 C   0  0  0  0  0  0  0  0  0  0  0  0
   -0.6740  -10.8737   18.0482 C   0  0  0  0  0  0  0  0  0  0  0  0
    5.6751  -10.5870   29.7637 O   0  0  0  0  0  0  0  0  0  0  0  0
    1.7612   -5.6483   26.7172 C   0  0  0  0  0  0  0  0  0  0  0  0
    0.2221   -9.8326   17.4055 C   0  0  0  0  0  0  0  0  0  0  0  0
    4.3850   -9.0730   28.6745 C   0  0  0  0  0  0  0  0  0  0  0  0
  1  7  4  0
  1 22  4  0
  2 17  4  0
  2 20  4  0
  2 28  4  0
  3  6  1  0
  3 19  1  0
  4 19  1  0
  4 26  1  0
  5 17  4  0
  5 18  4  0
  6 20  1  0
  6 26  1  0
  7 24  4  0
  8 15  4  0
  8 24  4  0
  9 14  4  0
  9 21  4  0
 10 12  4  0
 10 27  4  0
 11 12  4  0
 11 23  4  0
 13 23  4  0
 13 27  4  0
 14 20  4  0
 15 22  4  0
 16 18  4  0
 16 25  2  0
 16 28  4  0
 21 28  4  0
 24 27  1  0
M  END
$$$$

 Created by Python create_sdf_string function

 28 31  0  0  0  0  0  0  0  0999 V2000
   -1.0054  -13.0622   19.1198 C   0  0  0  0  0  0  0  0  0  0  0  0
    3.1478   -8.5360   28.5161 C   0  0  0  0  0  0  0  0  0  0  0  0
    0.5798   -7.1906   27.9330 C   0  0  0  0  0  0  0  0  0  0  0  0
    0.3978   -5.1561   26.6955 C   0  0  0  0  0  0  0  0  0  0  0  0
    2.3063  -10.0533   30.0125 C   0  0  0  0  0  0  0  0  0  0  0  0
    1.8591   -6.8254   27.4685 N   0  0  0  0  0  0  0  0  0  0  0  0
   -0.2167  -12.1055   18.5568 C   0  0  0  0  0  0  0  0  0  0  0  0
   -2.0661  -10.6994   18.1916 C   0  0  0  0  0  0  0  0  0  0  0  0
    5.2703   -7.5691   27.1123 C   0  0  0  0  0  0  0  0  0  0  0  0
    1.6204   -9.9887   17.2935 C   0  0  0  0  0  0  0  0  0  0  0  0
    1.8931   -7.9265   16.2047 C   0  0  0  0  0  0  0  0  0  0  0  0
    2.4396   -9.0801   16.7132 C   0  0  0  0  0  0  0  0  0  0  0  0
   -0.2575   -8.6234   16.8582 C   0  0  0  0  0  0  0  0  0  0  0  0
    4.0614   -7.0367   27.0106 N   0  0  0  0  0  0  0  0  0  0  0  0
   -2.9133  -11.6279   18.7578 C   0  0  0  0  0  0  0  0  0  0  0  0
    4.5688  -10.1291   29.5758 C   0  0  0  0  0  0  0  0  0  0  0  0
    2.1008   -9.0410   29.1852 N   0  0  0  0  0  0  0  0  0  0  0  0
    3.4829  -10.5697   30.2091 N   0  0  0  0  0  0  0  0  0  0  0  0
   -0.3363   -6.1172   27.5628 C   0  0  0  0  0  0  0  0  0  0  0  0
    3.0331   -7.4400   27.6362 C   0  0  0  0  0  0  0  0  0  0  0  0
    5.4553   -8.5933   27.9644 C   0  0  0  0  0  0  0  0  0  0  0  0
   -2.3870  -12.8440   19.2512 C   0  0  0  0  0  0  0  0  0  0  0  0
    0.5331   -7.6964   16.2751 C   0  0  0  0  0  0  0  0  0  0  0  0
   -0.6740  -10.8737   18.0482 C   0  0  0  0  0  0  0  0  0  0  0  0
    5.6751  -10.5870   29.7637 O   0  0  0  0  0  0  0  0  0  0  0  0
    1.7612   -5.6483   26.7172 C   0  0  0  0  0  0  0  0  0  0  0  0
    0.2221   -9.8326   17.4055 C   0  0  0  0  0  0  0  0  0  0  0  0
    4.3850   -9.0730   28.6745 C   0  0  0  0  0  0  0  0  0  0  0  0
  1  7  4  0
  1 22  4  0
  2 17  4  0
  2 20  4  0
  2 28  4  0
  3  6  1  0
  3 19  1  0
  4 19  1  0
  4 26  1  0
  5 17  4  0
  5 18  4  0
  6 20  1  0
  6 26  1  0
  7 24  4  0
  8 15  4  0
  8 24  4  0
  9 14  4  0
  9 21  4  0
 10 12  4  0
 10 27  4  0
 11 12  4  0
 11 23  4  0
 13 23  4  0
 13 27  4  0
 14 20  4  0
 15 22  4  0
 16 18  4  0
 16 25  2  0
 16 28  4  0
 21 28  4  0
 24 27  1  0
M  END
$$$$

 Created by Python create_sdf_string function

 28 31  0  0  0  0  0  0  0  0999 V2000
   -1.0054  -13.0622   19.1198 C   0  0  0  0  0  0  0  0  0  0  0  0
    3.1478   -8.5360   28.5161 C   0  0  0  0  0  0  0  0  0  0  0  0
    0.5798   -7.1906   27.9330 C   0  0  0  0  0  0  0  0  0  0  0  0
    0.3978   -5.1561   26.6955 C   0  0  0  0  0  0  0  0  0  0  0  0
    2.3063  -10.0533   30.0125 C   0  0  0  0  0  0  0  0  0  0  0  0
    1.8591   -6.8254   27.4685 N   0  0  0  0  0  0  0  0  0  0  0  0
   -0.2167  -12.1055   18.5568 C   0  0  0  0  0  0  0  0  0  0  0  0
   -2.0661  -10.6994   18.1916 C   0  0  0  0  0  0  0  0  0  0  0  0
    5.2703   -7.5691   27.1123 C   0  0  0  0  0  0  0  0  0  0  0  0
    1.6204   -9.9887   17.2935 C   0  0  0  0  0  0  0  0  0  0  0  0
    1.8931   -7.9265   16.2047 C   0  0  0  0  0  0  0  0  0  0  0  0
    2.4396   -9.0801   16.7132 C   0  0  0  0  0  0  0  0  0  0  0  0
   -0.2575   -8.6234   16.8582 C   0  0  0  0  0  0  0  0  0  0  0  0
    4.0614   -7.0367   27.0106 N   0  0  0  0  0  0  0  0  0  0  0  0
   -2.9133  -11.6279   18.7578 C   0  0  0  0  0  0  0  0  0  0  0  0
    4.5688  -10.1291   29.5758 C   0  0  0  0  0  0  0  0  0  0  0  0
    2.1008   -9.0410   29.1852 N   0  0  0  0  0  0  0  0  0  0  0  0
    3.4829  -10.5697   30.2091 N   0  0  0  0  0  0  0  0  0  0  0  0
   -0.3363   -6.1172   27.5628 C   0  0  0  0  0  0  0  0  0  0  0  0
    3.0331   -7.4400   27.6362 C   0  0  0  0  0  0  0  0  0  0  0  0
    5.4553   -8.5933   27.9644 C   0  0  0  0  0  0  0  0  0  0  0  0
   -2.3870  -12.8440   19.2512 C   0  0  0  0  0  0  0  0  0  0  0  0
    0.5331   -7.6964   16.2751 C   0  0  0  0  0  0  0  0  0  0  0  0
   -0.6740  -10.8737   18.0482 C   0  0  0  0  0  0  0  0  0  0  0  0
    5.6751  -10.5870   29.7637 O   0  0  0  0  0  0  0  0  0  0  0  0
    1.7612   -5.6483   26.7172 C   0  0  0  0  0  0  0  0  0  0  0  0
    0.2221   -9.8326   17.4055 C   0  0  0  0  0  0  0  0  0  0  0  0
    4.3850   -9.0730   28.6745 C   0  0  0  0  0  0  0  0  0  0  0  0
  1  7  4  0
  1 22  4  0
  2 17  4  0
  2 20  4  0
  2 28  4  0
  3  6  1  0
  3 19  1  0
  4 19  1  0
  4 26  1  0
  5 17  4  0
  5 18  4  0
  6 20  1  0
  6 26  1  0
  7 24  4  0
  8 15  4  0
  8 24  4  0
  9 14  4  0
  9 21  4  0
 10 12  4  0
 10 27  4  0
 11 12  4  0
 11 23  4  0
 13 23  4  0
 13 27  4  0
 14 20  4  0
 15 22  4  0
 16 18  4  0
 16 25  2  0
 16 28  4  0
 21 28  4  0
 24 27  1  0
M  END
$$$$

 Created by Python create_sdf_string function

 28 31  0  0  0  0  0  0  0  0999 V2000
   -1.0054  -13.0622   19.1198 C   0  0  0  0  0  0  0  0  0  0  0  0
    3.1478   -8.5360   28.5161 C   0  0  0  0  0  0  0  0  0  0  0  0
    0.5798   -7.1906   27.9330 C   0  0  0  0  0  0  0  0  0  0  0  0
    0.3978   -5.1561   26.6955 C   0  0  0  0  0  0  0  0  0  0  0  0
    2.3063  -10.0533   30.0125 C   0  0  0  0  0  0  0  0  0  0  0  0
    1.8591   -6.8254   27.4685 N   0  0  0  0  0  0  0  0  0  0  0  0
   -0.2167  -12.1055   18.5568 C   0  0  0  0  0  0  0  0  0  0  0  0
   -2.0661  -10.6994   18.1916 C   0  0  0  0  0  0  0  0  0  0  0  0
    5.2703   -7.5691   27.1123 C   0  0  0  0  0  0  0  0  0  0  0  0
    1.6204   -9.9887   17.2935 C   0  0  0  0  0  0  0  0  0  0  0  0
    1.8931   -7.9265   16.2047 C   0  0  0  0  0  0  0  0  0  0  0  0
    2.4396   -9.0801   16.7132 C   0  0  0  0  0  0  0  0  0  0  0  0
   -0.2575   -8.6234   16.8582 C   0  0  0  0  0  0  0  0  0  0  0  0
    4.0614   -7.0367   27.0106 N   0  0  0  0  0  0  0  0  0  0  0  0
   -2.9133  -11.6279   18.7578 C   0  0  0  0  0  0  0  0  0  0  0  0
    4.5688  -10.1291   29.5758 C   0  0  0  0  0  0  0  0  0  0  0  0
    2.1008   -9.0410   29.1852 N   0  0  0  0  0  0  0  0  0  0  0  0
    3.4829  -10.5697   30.2091 N   0  0  0  0  0  0  0  0  0  0  0  0
   -0.3363   -6.1172   27.5628 C   0  0  0  0  0  0  0  0  0  0  0  0
    3.0331   -7.4400   27.6362 C   0  0  0  0  0  0  0  0  0  0  0  0
    5.4553   -8.5933   27.9644 C   0  0  0  0  0  0  0  0  0  0  0  0
   -2.3870  -12.8440   19.2512 C   0  0  0  0  0  0  0  0  0  0  0  0
    0.5331   -7.6964   16.2751 C   0  0  0  0  0  0  0  0  0  0  0  0
   -0.6740  -10.8737   18.0482 C   0  0  0  0  0  0  0  0  0  0  0  0
    5.6751  -10.5870   29.7637 O   0  0  0  0  0  0  0  0  0  0  0  0
    1.7612   -5.6483   26.7172 C   0  0  0  0  0  0  0  0  0  0  0  0
    0.2221   -9.8326   17.4055 C   0  0  0  0  0  0  0  0  0  0  0  0
    4.3850   -9.0730   28.6745 C   0  0  0  0  0  0  0  0  0  0  0  0
  1  7  4  0
  1 22  4  0
  2 17  4  0
  2 20  4  0
  2 28  4  0
  3  6  1  0
  3 19  1  0
  4 19  1  0
  4 26  1  0
  5 17  4  0
  5 18  4  0
  6 20  1  0
  6 26  1  0
  7 24  4  0
  8 15  4  0
  8 24  4  0
  9 14  4  0
  9 21  4  0
 10 12  4  0
 10 27  4  0
 11 12  4  0
 11 23  4  0
 13 23  4  0
 13 27  4  0
 14 20  4  0
 15 22  4  0
 16 18  4  0
 16 25  2  0
 16 28  4  0
 21 28  4  0
 24 27  1  0
M  END
$$$$

 Created by Python create_sdf_string function

 28 31  0  0  0  0  0  0  0  0999 V2000
   -1.0054  -13.0622   19.1198 C   0  0  0  0  0  0  0  0  0  0  0  0
    3.1478   -8.5360   28.5161 C   0  0  0  0  0  0  0  0  0  0  0  0
    0.5798   -7.1906   27.9330 C   0  0  0  0  0  0  0  0  0  0  0  0
    0.3978   -5.1561   26.6955 C   0  0  0  0  0  0  0  0  0  0  0  0
    2.3063  -10.0533   30.0125 C   0  0  0  0  0  0  0  0  0  0  0  0
    1.8591   -6.8254   27.4685 N   0  0  0  0  0  0  0  0  0  0  0  0
   -0.2167  -12.1055   18.5568 C   0  0  0  0  0  0  0  0  0  0  0  0
   -2.0661  -10.6994   18.1916 C   0  0  0  0  0  0  0  0  0  0  0  0
    5.2703   -7.5691   27.1123 C   0  0  0  0  0  0  0  0  0  0  0  0
    1.6204   -9.9887   17.2935 C   0  0  0  0  0  0  0  0  0  0  0  0
    1.8931   -7.9265   16.2047 C   0  0  0  0  0  0  0  0  0  0  0  0
    2.4396   -9.0801   16.7132 C   0  0  0  0  0  0  0  0  0  0  0  0
   -0.2575   -8.6234   16.8582 C   0  0  0  0  0  0  0  0  0  0  0  0
    4.0614   -7.0367   27.0106 N   0  0  0  0  0  0  0  0  0  0  0  0
   -2.9133  -11.6279   18.7578 C   0  0  0  0  0  0  0  0  0  0  0  0
    4.5688  -10.1291   29.5758 C   0  0  0  0  0  0  0  0  0  0  0  0
    2.1008   -9.0410   29.1852 N   0  0  0  0  0  0  0  0  0  0  0  0
    3.4829  -10.5697   30.2091 N   0  0  0  0  0  0  0  0  0  0  0  0
   -0.3363   -6.1172   27.5628 C   0  0  0  0  0  0  0  0  0  0  0  0
    3.0331   -7.4400   27.6362 C   0  0  0  0  0  0  0  0  0  0  0  0
    5.4553   -8.5933   27.9644 C   0  0  0  0  0  0  0  0  0  0  0  0
   -2.3870  -12.8440   19.2512 C   0  0  0  0  0  0  0  0  0  0  0  0
    0.5331   -7.6964   16.2751 C   0  0  0  0  0  0  0  0  0  0  0  0
   -0.6740  -10.8737   18.0482 C   0  0  0  0  0  0  0  0  0  0  0  0
    5.6751  -10.5870   29.7637 O   0  0  0  0  0  0  0  0  0  0  0  0
    1.7612   -5.6483   26.7172 C   0  0  0  0  0  0  0  0  0  0  0  0
    0.2221   -9.8326   17.4055 C   0  0  0  0  0  0  0  0  0  0  0  0
    4.3850   -9.0730   28.6745 C   0  0  0  0  0  0  0  0  0  0  0  0
  1  7  4  0
  1 22  4  0
  2 17  4  0
  2 20  4  0
  2 28  4  0
  3  6  1  0
  3 19  1  0
  4 19  1  0
  4 26  1  0
  5 17  4  0
  5 18  4  0
  6 20  1  0
  6 26  1  0
  7 24  4  0
  8 15  4  0
  8 24  4  0
  9 14  4  0
  9 21  4  0
 10 12  4  0
 10 27  4  0
 11 12  4  0
 11 23  4  0
 13 23  4  0
 13 27  4  0
 14 20  4  0
 15 22  4  0
 16 18  4  0
 16 25  2  0
 16 28  4  0
 21 28  4  0
 24 27  1  0
M  END
$$$$

 Created by Python create_sdf_string function

 28 31  0  0  0  0  0  0  0  0999 V2000
   -1.0054  -13.0622   19.1198 C   0  0  0  0  0  0  0  0  0  0  0  0
    3.1478   -8.5360   28.5161 C   0  0  0  0  0  0  0  0  0  0  0  0
    0.5798   -7.1906   27.9330 C   0  0  0  0  0  0  0  0  0  0  0  0
    0.3978   -5.1561   26.6955 C   0  0  0  0  0  0  0  0  0  0  0  0
    2.3063  -10.0533   30.0125 C   0  0  0  0  0  0  0  0  0  0  0  0
    1.8591   -6.8254   27.4685 N   0  0  0  0  0  0  0  0  0  0  0  0
   -0.2167  -12.1055   18.5568 C   0  0  0  0  0  0  0  0  0  0  0  0
   -2.0661  -10.6994   18.1916 C   0  0  0  0  0  0  0  0  0  0  0  0
    5.2703   -7.5691   27.1123 C   0  0  0  0  0  0  0  0  0  0  0  0
    1.6204   -9.9887   17.2935 C   0  0  0  0  0  0  0  0  0  0  0  0
    1.8931   -7.9265   16.2047 C   0  0  0  0  0  0  0  0  0  0  0  0
    2.4396   -9.0801   16.7132 C   0  0  0  0  0  0  0  0  0  0  0  0
   -0.2575   -8.6234   16.8582 C   0  0  0  0  0  0  0  0  0  0  0  0
    4.0614   -7.0367   27.0106 N   0  0  0  0  0  0  0  0  0  0  0  0
   -2.9133  -11.6279   18.7578 C   0  0  0  0  0  0  0  0  0  0  0  0
    4.5688  -10.1291   29.5758 C   0  0  0  0  0  0  0  0  0  0  0  0
    2.1008   -9.0410   29.1852 N   0  0  0  0  0  0  0  0  0  0  0  0
    3.4829  -10.5697   30.2091 N   0  0  0  0  0  0  0  0  0  0  0  0
   -0.3363   -6.1172   27.5628 C   0  0  0  0  0  0  0  0  0  0  0  0
    3.0331   -7.4400   27.6362 C   0  0  0  0  0  0  0  0  0  0  0  0
    5.4553   -8.5933   27.9644 C   0  0  0  0  0  0  0  0  0  0  0  0
   -2.3870  -12.8440   19.2512 C   0  0  0  0  0  0  0  0  0  0  0  0
    0.5331   -7.6964   16.2751 C   0  0  0  0  0  0  0  0  0  0  0  0
   -0.6740  -10.8737   18.0482 C   0  0  0  0  0  0  0  0  0  0  0  0
    5.6751  -10.5870   29.7637 O   0  0  0  0  0  0  0  0  0  0  0  0
    1.7612   -5.6483   26.7172 C   0  0  0  0  0  0  0  0  0  0  0  0
    0.2221   -9.8326   17.4055 C   0  0  0  0  0  0  0  0  0  0  0  0
    4.3850   -9.0730   28.6745 C   0  0  0  0  0  0  0  0  0  0  0  0
  1  7  4  0
  1 22  4  0
  2 17  4  0
  2 20  4  0
  2 28  4  0
  3  6  1  0
  3 19  1  0
  4 19  1  0
  4 26  1  0
  5 17  4  0
  5 18  4  0
  6 20  1  0
  6 26  1  0
  7 24  4  0
  8 15  4  0
  8 24  4  0
  9 14  4  0
  9 21  4  0
 10 12  4  0
 10 27  4  0
 11 12  4  0
 11 23  4  0
 13 23  4  0
 13 27  4  0
 14 20  4  0
 15 22  4  0
 16 18  4  0
 16 25  2  0
 16 28  4  0
 21 28  4  0
 24 27  1  0
M  END
$$$$

 Created by Python create_sdf_string function

 28 31  0  0  0  0  0  0  0  0999 V2000
   -1.0054  -13.0622   19.1198 C   0  0  0  0  0  0  0  0  0  0  0  0
    3.1478   -8.5360   28.5161 C   0  0  0  0  0  0  0  0  0  0  0  0
    0.5798   -7.1906   27.9330 C   0  0  0  0  0  0  0  0  0  0  0  0
    0.3978   -5.1561   26.6955 C   0  0  0  0  0  0  0  0  0  0  0  0
    2.3063  -10.0533   30.0125 C   0  0  0  0  0  0  0  0  0  0  0  0
    1.8591   -6.8254   27.4685 N   0  0  0  0  0  0  0  0  0  0  0  0
   -0.2167  -12.1055   18.5568 C   0  0  0  0  0  0  0  0  0  0  0  0
   -2.0661  -10.6994   18.1916 C   0  0  0  0  0  0  0  0  0  0  0  0
    5.2703   -7.5691   27.1123 C   0  0  0  0  0  0  0  0  0  0  0  0
    1.6204   -9.9887   17.2935 C   0  0  0  0  0  0  0  0  0  0  0  0
    1.8931   -7.9265   16.2047 C   0  0  0  0  0  0  0  0  0  0  0  0
    2.4396   -9.0801   16.7132 C   0  0  0  0  0  0  0  0  0  0  0  0
   -0.2575   -8.6234   16.8582 C   0  0  0  0  0  0  0  0  0  0  0  0
    4.0614   -7.0367   27.0106 N   0  0  0  0  0  0  0  0  0  0  0  0
   -2.9133  -11.6279   18.7578 C   0  0  0  0  0  0  0  0  0  0  0  0
    4.5688  -10.1291   29.5758 C   0  0  0  0  0  0  0  0  0  0  0  0
    2.1008   -9.0410   29.1852 N   0  0  0  0  0  0  0  0  0  0  0  0
    3.4829  -10.5697   30.2091 N   0  0  0  0  0  0  0  0  0  0  0  0
   -0.3363   -6.1172   27.5628 C   0  0  0  0  0  0  0  0  0  0  0  0
    3.0331   -7.4400   27.6362 C   0  0  0  0  0  0  0  0  0  0  0  0
    5.4553   -8.5933   27.9644 C   0  0  0  0  0  0  0  0  0  0  0  0
   -2.3870  -12.8440   19.2512 C   0  0  0  0  0  0  0  0  0  0  0  0
    0.5331   -7.6964   16.2751 C   0  0  0  0  0  0  0  0  0  0  0  0
   -0.6740  -10.8737   18.0482 C   0  0  0  0  0  0  0  0  0  0  0  0
    5.6751  -10.5870   29.7637 O   0  0  0  0  0  0  0  0  0  0  0  0
    1.7612   -5.6483   26.7172 C   0  0  0  0  0  0  0  0  0  0  0  0
    0.2221   -9.8326   17.4055 C   0  0  0  0  0  0  0  0  0  0  0  0
    4.3850   -9.0730   28.6745 C   0  0  0  0  0  0  0  0  0  0  0  0
  1  7  4  0
  1 22  4  0
  2 17  4  0
  2 20  4  0
  2 28  4  0
  3  6  1  0
  3 19  1  0
  4 19  1  0
  4 26  1  0
  5 17  4  0
  5 18  4  0
  6 20  1  0
  6 26  1  0
  7 24  4  0
  8 15  4  0
  8 24  4  0
  9 14  4  0
  9 21  4  0
 10 12  4  0
 10 27  4  0
 11 12  4  0
 11 23  4  0
 13 23  4  0
 13 27  4  0
 14 20  4  0
 15 22  4  0
 16 18  4  0
 16 25  2  0
 16 28  4  0
 21 28  4  0
 24 27  1  0
M  END
$$$$

 Created by Python create_sdf_string function

 28 31  0  0  0  0  0  0  0  0999 V2000
   -1.0054  -13.0622   19.1198 C   0  0  0  0  0  0  0  0  0  0  0  0
    3.1478   -8.5360   28.5161 C   0  0  0  0  0  0  0  0  0  0  0  0
    0.5798   -7.1906   27.9330 C   0  0  0  0  0  0  0  0  0  0  0  0
    0.3978   -5.1561   26.6955 C   0  0  0  0  0  0  0  0  0  0  0  0
    2.3063  -10.0533   30.0125 C   0  0  0  0  0  0  0  0  0  0  0  0
    1.8591   -6.8254   27.4685 N   0  0  0  0  0  0  0  0  0  0  0  0
   -0.2167  -12.1055   18.5568 C   0  0  0  0  0  0  0  0  0  0  0  0
   -2.0661  -10.6994   18.1916 C   0  0  0  0  0  0  0  0  0  0  0  0
    5.2703   -7.5691   27.1123 C   0  0  0  0  0  0  0  0  0  0  0  0
    1.6204   -9.9887   17.2935 C   0  0  0  0  0  0  0  0  0  0  0  0
    1.8931   -7.9265   16.2047 C   0  0  0  0  0  0  0  0  0  0  0  0
    2.4396   -9.0801   16.7132 C   0  0  0  0  0  0  0  0  0  0  0  0
   -0.2575   -8.6234   16.8582 C   0  0  0  0  0  0  0  0  0  0  0  0
    4.0614   -7.0367   27.0106 N   0  0  0  0  0  0  0  0  0  0  0  0
   -2.9133  -11.6279   18.7578 C   0  0  0  0  0  0  0  0  0  0  0  0
    4.5688  -10.1291   29.5758 C   0  0  0  0  0  0  0  0  0  0  0  0
    2.1008   -9.0410   29.1852 N   0  0  0  0  0  0  0  0  0  0  0  0
    3.4829  -10.5697   30.2091 N   0  0  0  0  0  0  0  0  0  0  0  0
   -0.3363   -6.1172   27.5628 C   0  0  0  0  0  0  0  0  0  0  0  0
    3.0331   -7.4400   27.6362 C   0  0  0  0  0  0  0  0  0  0  0  0
    5.4553   -8.5933   27.9644 C   0  0  0  0  0  0  0  0  0  0  0  0
   -2.3870  -12.8440   19.2512 C   0  0  0  0  0  0  0  0  0  0  0  0
    0.5331   -7.6964   16.2751 C   0  0  0  0  0  0  0  0  0  0  0  0
   -0.6740  -10.8737   18.0482 C   0  0  0  0  0  0  0  0  0  0  0  0
    5.6751  -10.5870   29.7637 O   0  0  0  0  0  0  0  0  0  0  0  0
    1.7612   -5.6483   26.7172 C   0  0  0  0  0  0  0  0  0  0  0  0
    0.2221   -9.8326   17.4055 C   0  0  0  0  0  0  0  0  0  0  0  0
    4.3850   -9.0730   28.6745 C   0  0  0  0  0  0  0  0  0  0  0  0
  1  7  4  0
  1 22  4  0
  2 17  4  0
  2 20  4  0
  2 28  4  0
  3  6  1  0
  3 19  1  0
  4 19  1  0
  4 26  1  0
  5 17  4  0
  5 18  4  0
  6 20  1  0
  6 26  1  0
  7 24  4  0
  8 15  4  0
  8 24  4  0
  9 14  4  0
  9 21  4  0
 10 12  4  0
 10 27  4  0
 11 12  4  0
 11 23  4  0
 13 23  4  0
 13 27  4  0
 14 20  4  0
 15 22  4  0
 16 18  4  0
 16 25  2  0
 16 28  4  0
 21 28  4  0
 24 27  1  0
M  END
$$$$

 Created by Python create_sdf_string function

 28 31  0  0  0  0  0  0  0  0999 V2000
   -1.0054  -13.0622   19.1198 C   0  0  0  0  0  0  0  0  0  0  0  0
    3.1478   -8.5360   28.5161 C   0  0  0  0  0  0  0  0  0  0  0  0
    0.5798   -7.1906   27.9330 C   0  0  0  0  0  0  0  0  0  0  0  0
    0.3978   -5.1561   26.6955 C   0  0  0  0  0  0  0  0  0  0  0  0
    2.3063  -10.0533   30.0125 C   0  0  0  0  0  0  0  0  0  0  0  0
    1.8591   -6.8254   27.4685 N   0  0  0  0  0  0  0  0  0  0  0  0
   -0.2167  -12.1055   18.5568 C   0  0  0  0  0  0  0  0  0  0  0  0
   -2.0661  -10.6994   18.1916 C   0  0  0  0  0  0  0  0  0  0  0  0
    5.2703   -7.5691   27.1123 C   0  0  0  0  0  0  0  0  0  0  0  0
    1.6204   -9.9887   17.2935 C   0  0  0  0  0  0  0  0  0  0  0  0
    1.8931   -7.9265   16.2047 C   0  0  0  0  0  0  0  0  0  0  0  0
    2.4396   -9.0801   16.7132 C   0  0  0  0  0  0  0  0  0  0  0  0
   -0.2575   -8.6234   16.8582 C   0  0  0  0  0  0  0  0  0  0  0  0
    4.0614   -7.0367   27.0106 N   0  0  0  0  0  0  0  0  0  0  0  0
   -2.9133  -11.6279   18.7578 C   0  0  0  0  0  0  0  0  0  0  0  0
    4.5688  -10.1291   29.5758 C   0  0  0  0  0  0  0  0  0  0  0  0
    2.1008   -9.0410   29.1852 N   0  0  0  0  0  0  0  0  0  0  0  0
    3.4829  -10.5697   30.2091 N   0  0  0  0  0  0  0  0  0  0  0  0
   -0.3363   -6.1172   27.5628 C   0  0  0  0  0  0  0  0  0  0  0  0
    3.0331   -7.4400   27.6362 C   0  0  0  0  0  0  0  0  0  0  0  0
    5.4553   -8.5933   27.9644 C   0  0  0  0  0  0  0  0  0  0  0  0
   -2.3870  -12.8440   19.2512 C   0  0  0  0  0  0  0  0  0  0  0  0
    0.5331   -7.6964   16.2751 C   0  0  0  0  0  0  0  0  0  0  0  0
   -0.6740  -10.8737   18.0482 C   0  0  0  0  0  0  0  0  0  0  0  0
    5.6751  -10.5870   29.7637 O   0  0  0  0  0  0  0  0  0  0  0  0
    1.7612   -5.6483   26.7172 C   0  0  0  0  0  0  0  0  0  0  0  0
    0.2221   -9.8326   17.4055 C   0  0  0  0  0  0  0  0  0  0  0  0
    4.3850   -9.0730   28.6745 C   0  0  0  0  0  0  0  0  0  0  0  0
  1  7  4  0
  1 22  4  0
  2 17  4  0
  2 20  4  0
  2 28  4  0
  3  6  1  0
  3 19  1  0
  4 19  1  0
  4 26  1  0
  5 17  4  0
  5 18  4  0
  6 20  1  0
  6 26  1  0
  7 24  4  0
  8 15  4  0
  8 24  4  0
  9 14  4  0
  9 21  4  0
 10 12  4  0
 10 27  4  0
 11 12  4  0
 11 23  4  0
 13 23  4  0
 13 27  4  0
 14 20  4  0
 15 22  4  0
 16 18  4  0
 16 25  2  0
 16 28  4  0
 21 28  4  0
 24 27  1  0
M  END
$$$$

 Created by Python create_sdf_string function

 28 31  0  0  0  0  0  0  0  0999 V2000
   -1.0054  -13.0622   19.1198 C   0  0  0  0  0  0  0  0  0  0  0  0
    3.1478   -8.5360   28.5161 C   0  0  0  0  0  0  0  0  0  0  0  0
    0.5798   -7.1906   27.9330 C   0  0  0  0  0  0  0  0  0  0  0  0
    0.3978   -5.1561   26.6955 C   0  0  0  0  0  0  0  0  0  0  0  0
    2.3063  -10.0533   30.0125 C   0  0  0  0  0  0  0  0  0  0  0  0
    1.8591   -6.8254   27.4685 N   0  0  0  0  0  0  0  0  0  0  0  0
   -0.2167  -12.1055   18.5568 C   0  0  0  0  0  0  0  0  0  0  0  0
   -2.0661  -10.6994   18.1916 C   0  0  0  0  0  0  0  0  0  0  0  0
    5.2703   -7.5691   27.1123 C   0  0  0  0  0  0  0  0  0  0  0  0
    1.6204   -9.9887   17.2935 C   0  0  0  0  0  0  0  0  0  0  0  0
    1.8931   -7.9265   16.2047 C   0  0  0  0  0  0  0  0  0  0  0  0
    2.4396   -9.0801   16.7132 C   0  0  0  0  0  0  0  0  0  0  0  0
   -0.2575   -8.6234   16.8582 C   0  0  0  0  0  0  0  0  0  0  0  0
    4.0614   -7.0367   27.0106 N   0  0  0  0  0  0  0  0  0  0  0  0
   -2.9133  -11.6279   18.7578 C   0  0  0  0  0  0  0  0  0  0  0  0
    4.5688  -10.1291   29.5758 C   0  0  0  0  0  0  0  0  0  0  0  0
    2.1008   -9.0410   29.1852 N   0  0  0  0  0  0  0  0  0  0  0  0
    3.4829  -10.5697   30.2091 N   0  0  0  0  0  0  0  0  0  0  0  0
   -0.3363   -6.1172   27.5628 C   0  0  0  0  0  0  0  0  0  0  0  0
    3.0331   -7.4400   27.6362 C   0  0  0  0  0  0  0  0  0  0  0  0
    5.4553   -8.5933   27.9644 C   0  0  0  0  0  0  0  0  0  0  0  0
   -2.3870  -12.8440   19.2512 C   0  0  0  0  0  0  0  0  0  0  0  0
    0.5331   -7.6964   16.2751 C   0  0  0  0  0  0  0  0  0  0  0  0
   -0.6740  -10.8737   18.0482 C   0  0  0  0  0  0  0  0  0  0  0  0
    5.6751  -10.5870   29.7637 O   0  0  0  0  0  0  0  0  0  0  0  0
    1.7612   -5.6483   26.7172 C   0  0  0  0  0  0  0  0  0  0  0  0
    0.2221   -9.8326   17.4055 C   0  0  0  0  0  0  0  0  0  0  0  0
    4.3850   -9.0730   28.6745 C   0  0  0  0  0  0  0  0  0  0  0  0
  1  7  4  0
  1 22  4  0
  2 17  4  0
  2 20  4  0
  2 28  4  0
  3  6  1  0
  3 19  1  0
  4 19  1  0
  4 26  1  0
  5 17  4  0
  5 18  4  0
  6 20  1  0
  6 26  1  0
  7 24  4  0
  8 15  4  0
  8 24  4  0
  9 14  4  0
  9 21  4  0
 10 12  4  0
 10 27  4  0
 11 12  4  0
 11 23  4  0
 13 23  4  0
 13 27  4  0
 14 20  4  0
 15 22  4  0
 16 18  4  0
 16 25  2  0
 16 28  4  0
 21 28  4  0
 24 27  1  0
M  END
$$$$

 Created by Python create_sdf_string function

 28 31  0  0  0  0  0  0  0  0999 V2000
   -1.0054  -13.0622   19.1198 C   0  0  0  0  0  0  0  0  0  0  0  0
    3.1478   -8.5360   28.5161 C   0  0  0  0  0  0  0  0  0  0  0  0
    0.5798   -7.1906   27.9330 C   0  0  0  0  0  0  0  0  0  0  0  0
    0.3978   -5.1561   26.6955 C   0  0  0  0  0  0  0  0  0  0  0  0
    2.3063  -10.0533   30.0125 C   0  0  0  0  0  0  0  0  0  0  0  0
    1.8591   -6.8254   27.4685 N   0  0  0  0  0  0  0  0  0  0  0  0
   -0.2167  -12.1055   18.5568 C   0  0  0  0  0  0  0  0  0  0  0  0
   -2.0661  -10.6994   18.1916 C   0  0  0  0  0  0  0  0  0  0  0  0
    5.2703   -7.5691   27.1123 C   0  0  0  0  0  0  0  0  0  0  0  0
    1.6204   -9.9887   17.2935 C   0  0  0  0  0  0  0  0  0  0  0  0
    1.8931   -7.9265   16.2047 C   0  0  0  0  0  0  0  0  0  0  0  0
    2.4396   -9.0801   16.7132 C   0  0  0  0  0  0  0  0  0  0  0  0
   -0.2575   -8.6234   16.8582 C   0  0  0  0  0  0  0  0  0  0  0  0
    4.0614   -7.0367   27.0106 N   0  0  0  0  0  0  0  0  0  0  0  0
   -2.9133  -11.6279   18.7578 C   0  0  0  0  0  0  0  0  0  0  0  0
    4.5688  -10.1291   29.5758 C   0  0  0  0  0  0  0  0  0  0  0  0
    2.1008   -9.0410   29.1852 N   0  0  0  0  0  0  0  0  0  0  0  0
    3.4829  -10.5697   30.2091 N   0  0  0  0  0  0  0  0  0  0  0  0
   -0.3363   -6.1172   27.5628 C   0  0  0  0  0  0  0  0  0  0  0  0
    3.0331   -7.4400   27.6362 C   0  0  0  0  0  0  0  0  0  0  0  0
    5.4553   -8.5933   27.9644 C   0  0  0  0  0  0  0  0  0  0  0  0
   -2.3870  -12.8440   19.2512 C   0  0  0  0  0  0  0  0  0  0  0  0
    0.5331   -7.6964   16.2751 C   0  0  0  0  0  0  0  0  0  0  0  0
   -0.6740  -10.8737   18.0482 C   0  0  0  0  0  0  0  0  0  0  0  0
    5.6751  -10.5870   29.7637 O   0  0  0  0  0  0  0  0  0  0  0  0
    1.7612   -5.6483   26.7172 C   0  0  0  0  0  0  0  0  0  0  0  0
    0.2221   -9.8326   17.4055 C   0  0  0  0  0  0  0  0  0  0  0  0
    4.3850   -9.0730   28.6745 C   0  0  0  0  0  0  0  0  0  0  0  0
  1  7  4  0
  1 22  4  0
  2 17  4  0
  2 20  4  0
  2 28  4  0
  3  6  1  0
  3 19  1  0
  4 19  1  0
  4 26  1  0
  5 17  4  0
  5 18  4  0
  6 20  1  0
  6 26  1  0
  7 24  4  0
  8 15  4  0
  8 24  4  0
  9 14  4  0
  9 21  4  0
 10 12  4  0
 10 27  4  0
 11 12  4  0
 11 23  4  0
 13 23  4  0
 13 27  4  0
 14 20  4  0
 15 22  4  0
 16 18  4  0
 16 25  2  0
 16 28  4  0
 21 28  4  0
 24 27  1  0
M  END
$$$$

 Created by Python create_sdf_string function

 28 31  0  0  0  0  0  0  0  0999 V2000
   -1.0054  -13.0622   19.1198 C   0  0  0  0  0  0  0  0  0  0  0  0
    3.1478   -8.5360   28.5161 C   0  0  0  0  0  0  0  0  0  0  0  0
    0.5798   -7.1906   27.9330 C   0  0  0  0  0  0  0  0  0  0  0  0
    0.3978   -5.1561   26.6955 C   0  0  0  0  0  0  0  0  0  0  0  0
    2.3063  -10.0533   30.0125 C   0  0  0  0  0  0  0  0  0  0  0  0
    1.8591   -6.8254   27.4685 N   0  0  0  0  0  0  0  0  0  0  0  0
   -0.2167  -12.1055   18.5568 C   0  0  0  0  0  0  0  0  0  0  0  0
   -2.0661  -10.6994   18.1916 C   0  0  0  0  0  0  0  0  0  0  0  0
    5.2703   -7.5691   27.1123 C   0  0  0  0  0  0  0  0  0  0  0  0
    1.6204   -9.9887   17.2935 C   0  0  0  0  0  0  0  0  0  0  0  0
    1.8931   -7.9265   16.2047 C   0  0  0  0  0  0  0  0  0  0  0  0
    2.4396   -9.0801   16.7132 C   0  0  0  0  0  0  0  0  0  0  0  0
   -0.2575   -8.6234   16.8582 C   0  0  0  0  0  0  0  0  0  0  0  0
    4.0614   -7.0367   27.0106 N   0  0  0  0  0  0  0  0  0  0  0  0
   -2.9133  -11.6279   18.7578 C   0  0  0  0  0  0  0  0  0  0  0  0
    4.5688  -10.1291   29.5758 C   0  0  0  0  0  0  0  0  0  0  0  0
    2.1008   -9.0410   29.1852 N   0  0  0  0  0  0  0  0  0  0  0  0
    3.4829  -10.5697   30.2091 N   0  0  0  0  0  0  0  0  0  0  0  0
   -0.3363   -6.1172   27.5628 C   0  0  0  0  0  0  0  0  0  0  0  0
    3.0331   -7.4400   27.6362 C   0  0  0  0  0  0  0  0  0  0  0  0
    5.4553   -8.5933   27.9644 C   0  0  0  0  0  0  0  0  0  0  0  0
   -2.3870  -12.8440   19.2512 C   0  0  0  0  0  0  0  0  0  0  0  0
    0.5331   -7.6964   16.2751 C   0  0  0  0  0  0  0  0  0  0  0  0
   -0.6740  -10.8737   18.0482 C   0  0  0  0  0  0  0  0  0  0  0  0
    5.6751  -10.5870   29.7637 O   0  0  0  0  0  0  0  0  0  0  0  0
    1.7612   -5.6483   26.7172 C   0  0  0  0  0  0  0  0  0  0  0  0
    0.2221   -9.8326   17.4055 C   0  0  0  0  0  0  0  0  0  0  0  0
    4.3850   -9.0730   28.6745 C   0  0  0  0  0  0  0  0  0  0  0  0
  1  7  4  0
  1 22  4  0
  2 17  4  0
  2 20  4  0
  2 28  4  0
  3  6  1  0
  3 19  1  0
  4 19  1  0
  4 26  1  0
  5 17  4  0
  5 18  4  0
  6 20  1  0
  6 26  1  0
  7 24  4  0
  8 15  4  0
  8 24  4  0
  9 14  4  0
  9 21  4  0
 10 12  4  0
 10 27  4  0
 11 12  4  0
 11 23  4  0
 13 23  4  0
 13 27  4  0
 14 20  4  0
 15 22  4  0
 16 18  4  0
 16 25  2  0
 16 28  4  0
 21 28  4  0
 24 27  1  0
M  END
$$$$

 Created by Python create_sdf_string function

 28 31  0  0  0  0  0  0  0  0999 V2000
   -1.0054  -13.0622   19.1198 C   0  0  0  0  0  0  0  0  0  0  0  0
    3.1478   -8.5360   28.5161 C   0  0  0  0  0  0  0  0  0  0  0  0
    0.5798   -7.1906   27.9330 C   0  0  0  0  0  0  0  0  0  0  0  0
    0.3978   -5.1561   26.6955 C   0  0  0  0  0  0  0  0  0  0  0  0
    2.3063  -10.0533   30.0125 C   0  0  0  0  0  0  0  0  0  0  0  0
    1.8591   -6.8254   27.4685 N   0  0  0  0  0  0  0  0  0  0  0  0
   -0.2167  -12.1055   18.5568 C   0  0  0  0  0  0  0  0  0  0  0  0
   -2.0661  -10.6994   18.1916 C   0  0  0  0  0  0  0  0  0  0  0  0
    5.2703   -7.5691   27.1123 C   0  0  0  0  0  0  0  0  0  0  0  0
    1.6204   -9.9887   17.2935 C   0  0  0  0  0  0  0  0  0  0  0  0
    1.8931   -7.9265   16.2047 C   0  0  0  0  0  0  0  0  0  0  0  0
    2.4396   -9.0801   16.7132 C   0  0  0  0  0  0  0  0  0  0  0  0
   -0.2575   -8.6234   16.8582 C   0  0  0  0  0  0  0  0  0  0  0  0
    4.0614   -7.0367   27.0106 N   0  0  0  0  0  0  0  0  0  0  0  0
   -2.9133  -11.6279   18.7578 C   0  0  0  0  0  0  0  0  0  0  0  0
    4.5688  -10.1291   29.5758 C   0  0  0  0  0  0  0  0  0  0  0  0
    2.1008   -9.0410   29.1852 N   0  0  0  0  0  0  0  0  0  0  0  0
    3.4829  -10.5697   30.2091 N   0  0  0  0  0  0  0  0  0  0  0  0
   -0.3363   -6.1172   27.5628 C   0  0  0  0  0  0  0  0  0  0  0  0
    3.0331   -7.4400   27.6362 C   0  0  0  0  0  0  0  0  0  0  0  0
    5.4553   -8.5933   27.9644 C   0  0  0  0  0  0  0  0  0  0  0  0
   -2.3870  -12.8440   19.2512 C   0  0  0  0  0  0  0  0  0  0  0  0
    0.5331   -7.6964   16.2751 C   0  0  0  0  0  0  0  0  0  0  0  0
   -0.6740  -10.8737   18.0482 C   0  0  0  0  0  0  0  0  0  0  0  0
    5.6751  -10.5870   29.7637 O   0  0  0  0  0  0  0  0  0  0  0  0
    1.7612   -5.6483   26.7172 C   0  0  0  0  0  0  0  0  0  0  0  0
    0.2221   -9.8326   17.4055 C   0  0  0  0  0  0  0  0  0  0  0  0
    4.3850   -9.0730   28.6745 C   0  0  0  0  0  0  0  0  0  0  0  0
  1  7  4  0
  1 22  4  0
  2 17  4  0
  2 20  4  0
  2 28  4  0
  3  6  1  0
  3 19  1  0
  4 19  1  0
  4 26  1  0
  5 17  4  0
  5 18  4  0
  6 20  1  0
  6 26  1  0
  7 24  4  0
  8 15  4  0
  8 24  4  0
  9 14  4  0
  9 21  4  0
 10 12  4  0
 10 27  4  0
 11 12  4  0
 11 23  4  0
 13 23  4  0
 13 27  4  0
 14 20  4  0
 15 22  4  0
 16 18  4  0
 16 25  2  0
 16 28  4  0
 21 28  4  0
 24 27  1  0
M  END
$$$$

 Created by Python create_sdf_string function

 28 31  0  0  0  0  0  0  0  0999 V2000
   -1.0054  -13.0622   19.1198 C   0  0  0  0  0  0  0  0  0  0  0  0
    3.1478   -8.5360   28.5161 C   0  0  0  0  0  0  0  0  0  0  0  0
    0.5798   -7.1906   27.9330 C   0  0  0  0  0  0  0  0  0  0  0  0
    0.3978   -5.1561   26.6955 C   0  0  0  0  0  0  0  0  0  0  0  0
    2.3063  -10.0533   30.0125 C   0  0  0  0  0  0  0  0  0  0  0  0
    1.8591   -6.8254   27.4685 N   0  0  0  0  0  0  0  0  0  0  0  0
   -0.2167  -12.1055   18.5568 C   0  0  0  0  0  0  0  0  0  0  0  0
   -2.0661  -10.6994   18.1916 C   0  0  0  0  0  0  0  0  0  0  0  0
    5.2703   -7.5691   27.1123 C   0  0  0  0  0  0  0  0  0  0  0  0
    1.6204   -9.9887   17.2935 C   0  0  0  0  0  0  0  0  0  0  0  0
    1.8931   -7.9265   16.2047 C   0  0  0  0  0  0  0  0  0  0  0  0
    2.4396   -9.0801   16.7132 C   0  0  0  0  0  0  0  0  0  0  0  0
   -0.2575   -8.6234   16.8582 C   0  0  0  0  0  0  0  0  0  0  0  0
    4.0614   -7.0367   27.0106 N   0  0  0  0  0  0  0  0  0  0  0  0
   -2.9133  -11.6279   18.7578 C   0  0  0  0  0  0  0  0  0  0  0  0
    4.5688  -10.1291   29.5758 C   0  0  0  0  0  0  0  0  0  0  0  0
    2.1008   -9.0410   29.1852 N   0  0  0  0  0  0  0  0  0  0  0  0
    3.4829  -10.5697   30.2091 N   0  0  0  0  0  0  0  0  0  0  0  0
   -0.3363   -6.1172   27.5628 C   0  0  0  0  0  0  0  0  0  0  0  0
    3.0331   -7.4400   27.6362 C   0  0  0  0  0  0  0  0  0  0  0  0
    5.4553   -8.5933   27.9644 C   0  0  0  0  0  0  0  0  0  0  0  0
   -2.3870  -12.8440   19.2512 C   0  0  0  0  0  0  0  0  0  0  0  0
    0.5331   -7.6964   16.2751 C   0  0  0  0  0  0  0  0  0  0  0  0
   -0.6740  -10.8737   18.0482 C   0  0  0  0  0  0  0  0  0  0  0  0
    5.6751  -10.5870   29.7637 O   0  0  0  0  0  0  0  0  0  0  0  0
    1.7612   -5.6483   26.7172 C   0  0  0  0  0  0  0  0  0  0  0  0
    0.2221   -9.8326   17.4055 C   0  0  0  0  0  0  0  0  0  0  0  0
    4.3850   -9.0730   28.6745 C   0  0  0  0  0  0  0  0  0  0  0  0
  1  7  4  0
  1 22  4  0
  2 17  4  0
  2 20  4  0
  2 28  4  0
  3  6  1  0
  3 19  1  0
  4 19  1  0
  4 26  1  0
  5 17  4  0
  5 18  4  0
  6 20  1  0
  6 26  1  0
  7 24  4  0
  8 15  4  0
  8 24  4  0
  9 14  4  0
  9 21  4  0
 10 12  4  0
 10 27  4  0
 11 12  4  0
 11 23  4  0
 13 23  4  0
 13 27  4  0
 14 20  4  0
 15 22  4  0
 16 18  4  0
 16 25  2  0
 16 28  4  0
 21 28  4  0
 24 27  1  0
M  END
$$$$

 Created by Python create_sdf_string function

 28 31  0  0  0  0  0  0  0  0999 V2000
   -1.0054  -13.0622   19.1198 C   0  0  0  0  0  0  0  0  0  0  0  0
    3.1478   -8.5360   28.5161 C   0  0  0  0  0  0  0  0  0  0  0  0
    0.5798   -7.1906   27.9330 C   0  0  0  0  0  0  0  0  0  0  0  0
    0.3978   -5.1561   26.6955 C   0  0  0  0  0  0  0  0  0  0  0  0
    2.3063  -10.0533   30.0125 C   0  0  0  0  0  0  0  0  0  0  0  0
    1.8591   -6.8254   27.4685 N   0  0  0  0  0  0  0  0  0  0  0  0
   -0.2167  -12.1055   18.5568 C   0  0  0  0  0  0  0  0  0  0  0  0
   -2.0661  -10.6994   18.1916 C   0  0  0  0  0  0  0  0  0  0  0  0
    5.2703   -7.5691   27.1123 C   0  0  0  0  0  0  0  0  0  0  0  0
    1.6204   -9.9887   17.2935 C   0  0  0  0  0  0  0  0  0  0  0  0
    1.8931   -7.9265   16.2047 C   0  0  0  0  0  0  0  0  0  0  0  0
    2.4396   -9.0801   16.7132 C   0  0  0  0  0  0  0  0  0  0  0  0
   -0.2575   -8.6234   16.8582 C   0  0  0  0  0  0  0  0  0  0  0  0
    4.0614   -7.0367   27.0106 N   0  0  0  0  0  0  0  0  0  0  0  0
   -2.9133  -11.6279   18.7578 C   0  0  0  0  0  0  0  0  0  0  0  0
    4.5688  -10.1291   29.5758 C   0  0  0  0  0  0  0  0  0  0  0  0
    2.1008   -9.0410   29.1852 N   0  0  0  0  0  0  0  0  0  0  0  0
    3.4829  -10.5697   30.2091 N   0  0  0  0  0  0  0  0  0  0  0  0
   -0.3363   -6.1172   27.5628 C   0  0  0  0  0  0  0  0  0  0  0  0
    3.0331   -7.4400   27.6362 C   0  0  0  0  0  0  0  0  0  0  0  0
    5.4553   -8.5933   27.9644 C   0  0  0  0  0  0  0  0  0  0  0  0
   -2.3870  -12.8440   19.2512 C   0  0  0  0  0  0  0  0  0  0  0  0
    0.5331   -7.6964   16.2751 C   0  0  0  0  0  0  0  0  0  0  0  0
   -0.6740  -10.8737   18.0482 C   0  0  0  0  0  0  0  0  0  0  0  0
    5.6751  -10.5870   29.7637 O   0  0  0  0  0  0  0  0  0  0  0  0
    1.7612   -5.6483   26.7172 C   0  0  0  0  0  0  0  0  0  0  0  0
    0.2221   -9.8326   17.4055 C   0  0  0  0  0  0  0  0  0  0  0  0
    4.3850   -9.0730   28.6745 C   0  0  0  0  0  0  0  0  0  0  0  0
  1  7  4  0
  1 22  4  0
  2 17  4  0
  2 20  4  0
  2 28  4  0
  3  6  1  0
  3 19  1  0
  4 19  1  0
  4 26  1  0
  5 17  4  0
  5 18  4  0
  6 20  1  0
  6 26  1  0
  7 24  4  0
  8 15  4  0
  8 24  4  0
  9 14  4  0
  9 21  4  0
 10 12  4  0
 10 27  4  0
 11 12  4  0
 11 23  4  0
 13 23  4  0
 13 27  4  0
 14 20  4  0
 15 22  4  0
 16 18  4  0
 16 25  2  0
 16 28  4  0
 21 28  4  0
 24 27  1  0
M  END
$$$$

 Created by Python create_sdf_string function

 28 31  0  0  0  0  0  0  0  0999 V2000
   -1.0054  -13.0622   19.1198 C   0  0  0  0  0  0  0  0  0  0  0  0
    3.1478   -8.5360   28.5161 C   0  0  0  0  0  0  0  0  0  0  0  0
    0.5798   -7.1906   27.9330 C   0  0  0  0  0  0  0  0  0  0  0  0
    0.3978   -5.1561   26.6955 C   0  0  0  0  0  0  0  0  0  0  0  0
    2.3063  -10.0533   30.0125 C   0  0  0  0  0  0  0  0  0  0  0  0
    1.8591   -6.8254   27.4685 N   0  0  0  0  0  0  0  0  0  0  0  0
   -0.2167  -12.1055   18.5568 C   0  0  0  0  0  0  0  0  0  0  0  0
   -2.0661  -10.6994   18.1916 C   0  0  0  0  0  0  0  0  0  0  0  0
    5.2703   -7.5691   27.1123 C   0  0  0  0  0  0  0  0  0  0  0  0
    1.6204   -9.9887   17.2935 C   0  0  0  0  0  0  0  0  0  0  0  0
    1.8931   -7.9265   16.2047 C   0  0  0  0  0  0  0  0  0  0  0  0
    2.4396   -9.0801   16.7132 C   0  0  0  0  0  0  0  0  0  0  0  0
   -0.2575   -8.6234   16.8582 C   0  0  0  0  0  0  0  0  0  0  0  0
    4.0614   -7.0367   27.0106 N   0  0  0  0  0  0  0  0  0  0  0  0
   -2.9133  -11.6279   18.7578 C   0  0  0  0  0  0  0  0  0  0  0  0
    4.5688  -10.1291   29.5758 C   0  0  0  0  0  0  0  0  0  0  0  0
    2.1008   -9.0410   29.1852 N   0  0  0  0  0  0  0  0  0  0  0  0
    3.4829  -10.5697   30.2091 N   0  0  0  0  0  0  0  0  0  0  0  0
   -0.3363   -6.1172   27.5628 C   0  0  0  0  0  0  0  0  0  0  0  0
    3.0331   -7.4400   27.6362 C   0  0  0  0  0  0  0  0  0  0  0  0
    5.4553   -8.5933   27.9644 C   0  0  0  0  0  0  0  0  0  0  0  0
   -2.3870  -12.8440   19.2512 C   0  0  0  0  0  0  0  0  0  0  0  0
    0.5331   -7.6964   16.2751 C   0  0  0  0  0  0  0  0  0  0  0  0
   -0.6740  -10.8737   18.0482 C   0  0  0  0  0  0  0  0  0  0  0  0
    5.6751  -10.5870   29.7637 O   0  0  0  0  0  0  0  0  0  0  0  0
    1.7612   -5.6483   26.7172 C   0  0  0  0  0  0  0  0  0  0  0  0
    0.2221   -9.8326   17.4055 C   0  0  0  0  0  0  0  0  0  0  0  0
    4.3850   -9.0730   28.6745 C   0  0  0  0  0  0  0  0  0  0  0  0
  1  7  4  0
  1 22  4  0
  2 17  4  0
  2 20  4  0
  2 28  4  0
  3  6  1  0
  3 19  1  0
  4 19  1  0
  4 26  1  0
  5 17  4  0
  5 18  4  0
  6 20  1  0
  6 26  1  0
  7 24  4  0
  8 15  4  0
  8 24  4  0
  9 14  4  0
  9 21  4  0
 10 12  4  0
 10 27  4  0
 11 12  4  0
 11 23  4  0
 13 23  4  0
 13 27  4  0
 14 20  4  0
 15 22  4  0
 16 18  4  0
 16 25  2  0
 16 28  4  0
 21 28  4  0
 24 27  1  0
M  END
$$$$

 Created by Python create_sdf_string function

 28 31  0  0  0  0  0  0  0  0999 V2000
   -1.0054  -13.0622   19.1198 C   0  0  0  0  0  0  0  0  0  0  0  0
    3.1478   -8.5360   28.5161 C   0  0  0  0  0  0  0  0  0  0  0  0
    0.5798   -7.1906   27.9330 C   0  0  0  0  0  0  0  0  0  0  0  0
    0.3978   -5.1561   26.6955 C   0  0  0  0  0  0  0  0  0  0  0  0
    2.3063  -10.0533   30.0125 C   0  0  0  0  0  0  0  0  0  0  0  0
    1.8591   -6.8254   27.4685 N   0  0  0  0  0  0  0  0  0  0  0  0
   -0.2167  -12.1055   18.5568 C   0  0  0  0  0  0  0  0  0  0  0  0
   -2.0661  -10.6994   18.1916 C   0  0  0  0  0  0  0  0  0  0  0  0
    5.2703   -7.5691   27.1123 C   0  0  0  0  0  0  0  0  0  0  0  0
    1.6204   -9.9887   17.2935 C   0  0  0  0  0  0  0  0  0  0  0  0
    1.8931   -7.9265   16.2047 C   0  0  0  0  0  0  0  0  0  0  0  0
    2.4396   -9.0801   16.7132 C   0  0  0  0  0  0  0  0  0  0  0  0
   -0.2575   -8.6234   16.8582 C   0  0  0  0  0  0  0  0  0  0  0  0
    4.0614   -7.0367   27.0106 N   0  0  0  0  0  0  0  0  0  0  0  0
   -2.9133  -11.6279   18.7578 C   0  0  0  0  0  0  0  0  0  0  0  0
    4.5688  -10.1291   29.5758 C   0  0  0  0  0  0  0  0  0  0  0  0
    2.1008   -9.0410   29.1852 N   0  0  0  0  0  0  0  0  0  0  0  0
    3.4829  -10.5697   30.2091 N   0  0  0  0  0  0  0  0  0  0  0  0
   -0.3363   -6.1172   27.5628 C   0  0  0  0  0  0  0  0  0  0  0  0
    3.0331   -7.4400   27.6362 C   0  0  0  0  0  0  0  0  0  0  0  0
    5.4553   -8.5933   27.9644 C   0  0  0  0  0  0  0  0  0  0  0  0
   -2.3870  -12.8440   19.2512 C   0  0  0  0  0  0  0  0  0  0  0  0
    0.5331   -7.6964   16.2751 C   0  0  0  0  0  0  0  0  0  0  0  0
   -0.6740  -10.8737   18.0482 C   0  0  0  0  0  0  0  0  0  0  0  0
    5.6751  -10.5870   29.7637 O   0  0  0  0  0  0  0  0  0  0  0  0
    1.7612   -5.6483   26.7172 C   0  0  0  0  0  0  0  0  0  0  0  0
    0.2221   -9.8326   17.4055 C   0  0  0  0  0  0  0  0  0  0  0  0
    4.3850   -9.0730   28.6745 C   0  0  0  0  0  0  0  0  0  0  0  0
  1  7  4  0
  1 22  4  0
  2 17  4  0
  2 20  4  0
  2 28  4  0
  3  6  1  0
  3 19  1  0
  4 19  1  0
  4 26  1  0
  5 17  4  0
  5 18  4  0
  6 20  1  0
  6 26  1  0
  7 24  4  0
  8 15  4  0
  8 24  4  0
  9 14  4  0
  9 21  4  0
 10 12  4  0
 10 27  4  0
 11 12  4  0
 11 23  4  0
 13 23  4  0
 13 27  4  0
 14 20  4  0
 15 22  4  0
 16 18  4  0
 16 25  2  0
 16 28  4  0
 21 28  4  0
 24 27  1  0
M  END
$$$$

 Created by Python create_sdf_string function

 28 31  0  0  0  0  0  0  0  0999 V2000
   -1.0054  -13.0622   19.1198 C   0  0  0  0  0  0  0  0  0  0  0  0
    3.1478   -8.5360   28.5161 C   0  0  0  0  0  0  0  0  0  0  0  0
    0.5798   -7.1906   27.9330 C   0  0  0  0  0  0  0  0  0  0  0  0
    0.3978   -5.1561   26.6955 C   0  0  0  0  0  0  0  0  0  0  0  0
    2.3063  -10.0533   30.0125 C   0  0  0  0  0  0  0  0  0  0  0  0
    1.8591   -6.8254   27.4685 N   0  0  0  0  0  0  0  0  0  0  0  0
   -0.2167  -12.1055   18.5568 C   0  0  0  0  0  0  0  0  0  0  0  0
   -2.0661  -10.6994   18.1916 C   0  0  0  0  0  0  0  0  0  0  0  0
    5.2703   -7.5691   27.1123 C   0  0  0  0  0  0  0  0  0  0  0  0
    1.6204   -9.9887   17.2935 C   0  0  0  0  0  0  0  0  0  0  0  0
    1.8931   -7.9265   16.2047 C   0  0  0  0  0  0  0  0  0  0  0  0
    2.4396   -9.0801   16.7132 C   0  0  0  0  0  0  0  0  0  0  0  0
   -0.2575   -8.6234   16.8582 C   0  0  0  0  0  0  0  0  0  0  0  0
    4.0614   -7.0367   27.0106 N   0  0  0  0  0  0  0  0  0  0  0  0
   -2.9133  -11.6279   18.7578 C   0  0  0  0  0  0  0  0  0  0  0  0
    4.5688  -10.1291   29.5758 C   0  0  0  0  0  0  0  0  0  0  0  0
    2.1008   -9.0410   29.1852 N   0  0  0  0  0  0  0  0  0  0  0  0
    3.4829  -10.5697   30.2091 N   0  0  0  0  0  0  0  0  0  0  0  0
   -0.3363   -6.1172   27.5628 C   0  0  0  0  0  0  0  0  0  0  0  0
    3.0331   -7.4400   27.6362 C   0  0  0  0  0  0  0  0  0  0  0  0
    5.4553   -8.5933   27.9644 C   0  0  0  0  0  0  0  0  0  0  0  0
   -2.3870  -12.8440   19.2512 C   0  0  0  0  0  0  0  0  0  0  0  0
    0.5331   -7.6964   16.2751 C   0  0  0  0  0  0  0  0  0  0  0  0
   -0.6740  -10.8737   18.0482 C   0  0  0  0  0  0  0  0  0  0  0  0
    5.6751  -10.5870   29.7637 O   0  0  0  0  0  0  0  0  0  0  0  0
    1.7612   -5.6483   26.7172 C   0  0  0  0  0  0  0  0  0  0  0  0
    0.2221   -9.8326   17.4055 C   0  0  0  0  0  0  0  0  0  0  0  0
    4.3850   -9.0730   28.6745 C   0  0  0  0  0  0  0  0  0  0  0  0
  1  7  4  0
  1 22  4  0
  2 17  4  0
  2 20  4  0
  2 28  4  0
  3  6  1  0
  3 19  1  0
  4 19  1  0
  4 26  1  0
  5 17  4  0
  5 18  4  0
  6 20  1  0
  6 26  1  0
  7 24  4  0
  8 15  4  0
  8 24  4  0
  9 14  4  0
  9 21  4  0
 10 12  4  0
 10 27  4  0
 11 12  4  0
 11 23  4  0
 13 23  4  0
 13 27  4  0
 14 20  4  0
 15 22  4  0
 16 18  4  0
 16 25  2  0
 16 28  4  0
 21 28  4  0
 24 27  1  0
M  END
$$$$

 Created by Python create_sdf_string function

 28 31  0  0  0  0  0  0  0  0999 V2000
   -1.0054  -13.0622   19.1198 C   0  0  0  0  0  0  0  0  0  0  0  0
    3.1478   -8.5360   28.5161 C   0  0  0  0  0  0  0  0  0  0  0  0
    0.5798   -7.1906   27.9330 C   0  0  0  0  0  0  0  0  0  0  0  0
    0.3978   -5.1561   26.6955 C   0  0  0  0  0  0  0  0  0  0  0  0
    2.3063  -10.0533   30.0125 C   0  0  0  0  0  0  0  0  0  0  0  0
    1.8591   -6.8254   27.4685 N   0  0  0  0  0  0  0  0  0  0  0  0
   -0.2167  -12.1055   18.5568 C   0  0  0  0  0  0  0  0  0  0  0  0
   -2.0661  -10.6994   18.1916 C   0  0  0  0  0  0  0  0  0  0  0  0
    5.2703   -7.5691   27.1123 C   0  0  0  0  0  0  0  0  0  0  0  0
    1.6204   -9.9887   17.2935 C   0  0  0  0  0  0  0  0  0  0  0  0
    1.8931   -7.9265   16.2047 C   0  0  0  0  0  0  0  0  0  0  0  0
    2.4396   -9.0801   16.7132 C   0  0  0  0  0  0  0  0  0  0  0  0
   -0.2575   -8.6234   16.8582 C   0  0  0  0  0  0  0  0  0  0  0  0
    4.0614   -7.0367   27.0106 N   0  0  0  0  0  0  0  0  0  0  0  0
   -2.9133  -11.6279   18.7578 C   0  0  0  0  0  0  0  0  0  0  0  0
    4.5688  -10.1291   29.5758 C   0  0  0  0  0  0  0  0  0  0  0  0
    2.1008   -9.0410   29.1852 N   0  0  0  0  0  0  0  0  0  0  0  0
    3.4829  -10.5697   30.2091 N   0  0  0  0  0  0  0  0  0  0  0  0
   -0.3363   -6.1172   27.5628 C   0  0  0  0  0  0  0  0  0  0  0  0
    3.0331   -7.4400   27.6362 C   0  0  0  0  0  0  0  0  0  0  0  0
    5.4553   -8.5933   27.9644 C   0  0  0  0  0  0  0  0  0  0  0  0
   -2.3870  -12.8440   19.2512 C   0  0  0  0  0  0  0  0  0  0  0  0
    0.5331   -7.6964   16.2751 C   0  0  0  0  0  0  0  0  0  0  0  0
   -0.6740  -10.8737   18.0482 C   0  0  0  0  0  0  0  0  0  0  0  0
    5.6751  -10.5870   29.7637 O   0  0  0  0  0  0  0  0  0  0  0  0
    1.7612   -5.6483   26.7172 C   0  0  0  0  0  0  0  0  0  0  0  0
    0.2221   -9.8326   17.4055 C   0  0  0  0  0  0  0  0  0  0  0  0
    4.3850   -9.0730   28.6745 C   0  0  0  0  0  0  0  0  0  0  0  0
  1  7  4  0
  1 22  4  0
  2 17  4  0
  2 20  4  0
  2 28  4  0
  3  6  1  0
  3 19  1  0
  4 19  1  0
  4 26  1  0
  5 17  4  0
  5 18  4  0
  6 20  1  0
  6 26  1  0
  7 24  4  0
  8 15  4  0
  8 24  4  0
  9 14  4  0
  9 21  4  0
 10 12  4  0
 10 27  4  0
 11 12  4  0
 11 23  4  0
 13 23  4  0
 13 27  4  0
 14 20  4  0
 15 22  4  0
 16 18  4  0
 16 25  2  0
 16 28  4  0
 21 28  4  0
 24 27  1  0
M  END
$$$$

 Created by Python create_sdf_string function

 28 31  0  0  0  0  0  0  0  0999 V2000
   -1.0054  -13.0622   19.1198 C   0  0  0  0  0  0  0  0  0  0  0  0
    3.1478   -8.5360   28.5161 C   0  0  0  0  0  0  0  0  0  0  0  0
    0.5798   -7.1906   27.9330 C   0  0  0  0  0  0  0  0  0  0  0  0
    0.3978   -5.1561   26.6955 C   0  0  0  0  0  0  0  0  0  0  0  0
    2.3063  -10.0533   30.0125 C   0  0  0  0  0  0  0  0  0  0  0  0
    1.8591   -6.8254   27.4685 N   0  0  0  0  0  0  0  0  0  0  0  0
   -0.2167  -12.1055   18.5568 C   0  0  0  0  0  0  0  0  0  0  0  0
   -2.0661  -10.6994   18.1916 C   0  0  0  0  0  0  0  0  0  0  0  0
    5.2703   -7.5691   27.1123 C   0  0  0  0  0  0  0  0  0  0  0  0
    1.6204   -9.9887   17.2935 C   0  0  0  0  0  0  0  0  0  0  0  0
    1.8931   -7.9265   16.2047 C   0  0  0  0  0  0  0  0  0  0  0  0
    2.4396   -9.0801   16.7132 C   0  0  0  0  0  0  0  0  0  0  0  0
   -0.2575   -8.6234   16.8582 C   0  0  0  0  0  0  0  0  0  0  0  0
    4.0614   -7.0367   27.0106 N   0  0  0  0  0  0  0  0  0  0  0  0
   -2.9133  -11.6279   18.7578 C   0  0  0  0  0  0  0  0  0  0  0  0
    4.5688  -10.1291   29.5758 C   0  0  0  0  0  0  0  0  0  0  0  0
    2.1008   -9.0410   29.1852 N   0  0  0  0  0  0  0  0  0  0  0  0
    3.4829  -10.5697   30.2091 N   0  0  0  0  0  0  0  0  0  0  0  0
   -0.3363   -6.1172   27.5628 C   0  0  0  0  0  0  0  0  0  0  0  0
    3.0331   -7.4400   27.6362 C   0  0  0  0  0  0  0  0  0  0  0  0
    5.4553   -8.5933   27.9644 C   0  0  0  0  0  0  0  0  0  0  0  0
   -2.3870  -12.8440   19.2512 C   0  0  0  0  0  0  0  0  0  0  0  0
    0.5331   -7.6964   16.2751 C   0  0  0  0  0  0  0  0  0  0  0  0
   -0.6740  -10.8737   18.0482 C   0  0  0  0  0  0  0  0  0  0  0  0
    5.6751  -10.5870   29.7637 O   0  0  0  0  0  0  0  0  0  0  0  0
    1.7612   -5.6483   26.7172 C   0  0  0  0  0  0  0  0  0  0  0  0
    0.2221   -9.8326   17.4055 C   0  0  0  0  0  0  0  0  0  0  0  0
    4.3850   -9.0730   28.6745 C   0  0  0  0  0  0  0  0  0  0  0  0
  1  7  4  0
  1 22  4  0
  2 17  4  0
  2 20  4  0
  2 28  4  0
  3  6  1  0
  3 19  1  0
  4 19  1  0
  4 26  1  0
  5 17  4  0
  5 18  4  0
  6 20  1  0
  6 26  1  0
  7 24  4  0
  8 15  4  0
  8 24  4  0
  9 14  4  0
  9 21  4  0
 10 12  4  0
 10 27  4  0
 11 12  4  0
 11 23  4  0
 13 23  4  0
 13 27  4  0
 14 20  4  0
 15 22  4  0
 16 18  4  0
 16 25  2  0
 16 28  4  0
 21 28  4  0
 24 27  1  0
M  END
$$$$

 Created by Python create_sdf_string function

 28 31  0  0  0  0  0  0  0  0999 V2000
   -1.0054  -13.0622   19.1198 C   0  0  0  0  0  0  0  0  0  0  0  0
    3.1478   -8.5360   28.5161 C   0  0  0  0  0  0  0  0  0  0  0  0
    0.5798   -7.1906   27.9330 C   0  0  0  0  0  0  0  0  0  0  0  0
    0.3978   -5.1561   26.6955 C   0  0  0  0  0  0  0  0  0  0  0  0
    2.3063  -10.0533   30.0125 C   0  0  0  0  0  0  0  0  0  0  0  0
    1.8591   -6.8254   27.4685 N   0  0  0  0  0  0  0  0  0  0  0  0
   -0.2167  -12.1055   18.5568 C   0  0  0  0  0  0  0  0  0  0  0  0
   -2.0661  -10.6994   18.1916 C   0  0  0  0  0  0  0  0  0  0  0  0
    5.2703   -7.5691   27.1123 C   0  0  0  0  0  0  0  0  0  0  0  0
    1.6204   -9.9887   17.2935 C   0  0  0  0  0  0  0  0  0  0  0  0
    1.8931   -7.9265   16.2047 C   0  0  0  0  0  0  0  0  0  0  0  0
    2.4396   -9.0801   16.7132 C   0  0  0  0  0  0  0  0  0  0  0  0
   -0.2575   -8.6234   16.8582 C   0  0  0  0  0  0  0  0  0  0  0  0
    4.0614   -7.0367   27.0106 N   0  0  0  0  0  0  0  0  0  0  0  0
   -2.9133  -11.6279   18.7578 C   0  0  0  0  0  0  0  0  0  0  0  0
    4.5688  -10.1291   29.5758 C   0  0  0  0  0  0  0  0  0  0  0  0
    2.1008   -9.0410   29.1852 N   0  0  0  0  0  0  0  0  0  0  0  0
    3.4829  -10.5697   30.2091 N   0  0  0  0  0  0  0  0  0  0  0  0
   -0.3363   -6.1172   27.5628 C   0  0  0  0  0  0  0  0  0  0  0  0
    3.0331   -7.4400   27.6362 C   0  0  0  0  0  0  0  0  0  0  0  0
    5.4553   -8.5933   27.9644 C   0  0  0  0  0  0  0  0  0  0  0  0
   -2.3870  -12.8440   19.2512 C   0  0  0  0  0  0  0  0  0  0  0  0
    0.5331   -7.6964   16.2751 C   0  0  0  0  0  0  0  0  0  0  0  0
   -0.6740  -10.8737   18.0482 C   0  0  0  0  0  0  0  0  0  0  0  0
    5.6751  -10.5870   29.7637 O   0  0  0  0  0  0  0  0  0  0  0  0
    1.7612   -5.6483   26.7172 C   0  0  0  0  0  0  0  0  0  0  0  0
    0.2221   -9.8326   17.4055 C   0  0  0  0  0  0  0  0  0  0  0  0
    4.3850   -9.0730   28.6745 C   0  0  0  0  0  0  0  0  0  0  0  0
  1  7  4  0
  1 22  4  0
  2 17  4  0
  2 20  4  0
  2 28  4  0
  3  6  1  0
  3 19  1  0
  4 19  1  0
  4 26  1  0
  5 17  4  0
  5 18  4  0
  6 20  1  0
  6 26  1  0
  7 24  4  0
  8 15  4  0
  8 24  4  0
  9 14  4  0
  9 21  4  0
 10 12  4  0
 10 27  4  0
 11 12  4  0
 11 23  4  0
 13 23  4  0
 13 27  4  0
 14 20  4  0
 15 22  4  0
 16 18  4  0
 16 25  2  0
 16 28  4  0
 21 28  4  0
 24 27  1  0
M  END
$$$$

 Created by Python create_sdf_string function

 28 31  0  0  0  0  0  0  0  0999 V2000
   -1.0054  -13.0622   19.1198 C   0  0  0  0  0  0  0  0  0  0  0  0
    3.1478   -8.5360   28.5161 C   0  0  0  0  0  0  0  0  0  0  0  0
    0.5798   -7.1906   27.9330 C   0  0  0  0  0  0  0  0  0  0  0  0
    0.3978   -5.1561   26.6955 C   0  0  0  0  0  0  0  0  0  0  0  0
    2.3063  -10.0533   30.0125 C   0  0  0  0  0  0  0  0  0  0  0  0
    1.8591   -6.8254   27.4685 N   0  0  0  0  0  0  0  0  0  0  0  0
   -0.2167  -12.1055   18.5568 C   0  0  0  0  0  0  0  0  0  0  0  0
   -2.0661  -10.6994   18.1916 C   0  0  0  0  0  0  0  0  0  0  0  0
    5.2703   -7.5691   27.1123 C   0  0  0  0  0  0  0  0  0  0  0  0
    1.6204   -9.9887   17.2935 C   0  0  0  0  0  0  0  0  0  0  0  0
    1.8931   -7.9265   16.2047 C   0  0  0  0  0  0  0  0  0  0  0  0
    2.4396   -9.0801   16.7132 C   0  0  0  0  0  0  0  0  0  0  0  0
   -0.2575   -8.6234   16.8582 C   0  0  0  0  0  0  0  0  0  0  0  0
    4.0614   -7.0367   27.0106 N   0  0  0  0  0  0  0  0  0  0  0  0
   -2.9133  -11.6279   18.7578 C   0  0  0  0  0  0  0  0  0  0  0  0
    4.5688  -10.1291   29.5758 C   0  0  0  0  0  0  0  0  0  0  0  0
    2.1008   -9.0410   29.1852 N   0  0  0  0  0  0  0  0  0  0  0  0
    3.4829  -10.5697   30.2091 N   0  0  0  0  0  0  0  0  0  0  0  0
   -0.3363   -6.1172   27.5628 C   0  0  0  0  0  0  0  0  0  0  0  0
    3.0331   -7.4400   27.6362 C   0  0  0  0  0  0  0  0  0  0  0  0
    5.4553   -8.5933   27.9644 C   0  0  0  0  0  0  0  0  0  0  0  0
   -2.3870  -12.8440   19.2512 C   0  0  0  0  0  0  0  0  0  0  0  0
    0.5331   -7.6964   16.2751 C   0  0  0  0  0  0  0  0  0  0  0  0
   -0.6740  -10.8737   18.0482 C   0  0  0  0  0  0  0  0  0  0  0  0
    5.6751  -10.5870   29.7637 O   0  0  0  0  0  0  0  0  0  0  0  0
    1.7612   -5.6483   26.7172 C   0  0  0  0  0  0  0  0  0  0  0  0
    0.2221   -9.8326   17.4055 C   0  0  0  0  0  0  0  0  0  0  0  0
    4.3850   -9.0730   28.6745 C   0  0  0  0  0  0  0  0  0  0  0  0
  1  7  4  0
  1 22  4  0
  2 17  4  0
  2 20  4  0
  2 28  4  0
  3  6  1  0
  3 19  1  0
  4 19  1  0
  4 26  1  0
  5 17  4  0
  5 18  4  0
  6 20  1  0
  6 26  1  0
  7 24  4  0
  8 15  4  0
  8 24  4  0
  9 14  4  0
  9 21  4  0
 10 12  4  0
 10 27  4  0
 11 12  4  0
 11 23  4  0
 13 23  4  0
 13 27  4  0
 14 20  4  0
 15 22  4  0
 16 18  4  0
 16 25  2  0
 16 28  4  0
 21 28  4  0
 24 27  1  0
M  END
$$$$

 Created by Python create_sdf_string function

 28 31  0  0  0  0  0  0  0  0999 V2000
   -1.0054  -13.0622   19.1198 C   0  0  0  0  0  0  0  0  0  0  0  0
    3.1478   -8.5360   28.5161 C   0  0  0  0  0  0  0  0  0  0  0  0
    0.5798   -7.1906   27.9330 C   0  0  0  0  0  0  0  0  0  0  0  0
    0.3978   -5.1561   26.6955 C   0  0  0  0  0  0  0  0  0  0  0  0
    2.3063  -10.0533   30.0125 C   0  0  0  0  0  0  0  0  0  0  0  0
    1.8591   -6.8254   27.4685 N   0  0  0  0  0  0  0  0  0  0  0  0
   -0.2167  -12.1055   18.5568 C   0  0  0  0  0  0  0  0  0  0  0  0
   -2.0661  -10.6994   18.1916 C   0  0  0  0  0  0  0  0  0  0  0  0
    5.2703   -7.5691   27.1123 C   0  0  0  0  0  0  0  0  0  0  0  0
    1.6204   -9.9887   17.2935 C   0  0  0  0  0  0  0  0  0  0  0  0
    1.8931   -7.9265   16.2047 C   0  0  0  0  0  0  0  0  0  0  0  0
    2.4396   -9.0801   16.7132 C   0  0  0  0  0  0  0  0  0  0  0  0
   -0.2575   -8.6234   16.8582 C   0  0  0  0  0  0  0  0  0  0  0  0
    4.0614   -7.0367   27.0106 N   0  0  0  0  0  0  0  0  0  0  0  0
   -2.9133  -11.6279   18.7578 C   0  0  0  0  0  0  0  0  0  0  0  0
    4.5688  -10.1291   29.5758 C   0  0  0  0  0  0  0  0  0  0  0  0
    2.1008   -9.0410   29.1852 N   0  0  0  0  0  0  0  0  0  0  0  0
    3.4829  -10.5697   30.2091 N   0  0  0  0  0  0  0  0  0  0  0  0
   -0.3363   -6.1172   27.5628 C   0  0  0  0  0  0  0  0  0  0  0  0
    3.0331   -7.4400   27.6362 C   0  0  0  0  0  0  0  0  0  0  0  0
    5.4553   -8.5933   27.9644 C   0  0  0  0  0  0  0  0  0  0  0  0
   -2.3870  -12.8440   19.2512 C   0  0  0  0  0  0  0  0  0  0  0  0
    0.5331   -7.6964   16.2751 C   0  0  0  0  0  0  0  0  0  0  0  0
   -0.6740  -10.8737   18.0482 C   0  0  0  0  0  0  0  0  0  0  0  0
    5.6751  -10.5870   29.7637 O   0  0  0  0  0  0  0  0  0  0  0  0
    1.7612   -5.6483   26.7172 C   0  0  0  0  0  0  0  0  0  0  0  0
    0.2221   -9.8326   17.4055 C   0  0  0  0  0  0  0  0  0  0  0  0
    4.3850   -9.0730   28.6745 C   0  0  0  0  0  0  0  0  0  0  0  0
  1  7  4  0
  1 22  4  0
  2 17  4  0
  2 20  4  0
  2 28  4  0
  3  6  1  0
  3 19  1  0
  4 19  1  0
  4 26  1  0
  5 17  4  0
  5 18  4  0
  6 20  1  0
  6 26  1  0
  7 24  4  0
  8 15  4  0
  8 24  4  0
  9 14  4  0
  9 21  4  0
 10 12  4  0
 10 27  4  0
 11 12  4  0
 11 23  4  0
 13 23  4  0
 13 27  4  0
 14 20  4  0
 15 22  4  0
 16 18  4  0
 16 25  2  0
 16 28  4  0
 21 28  4  0
 24 27  1  0
M  END
$$$$

 Created by Python create_sdf_string function

 28 31  0  0  0  0  0  0  0  0999 V2000
   -1.0054  -13.0622   19.1198 C   0  0  0  0  0  0  0  0  0  0  0  0
    3.1478   -8.5360   28.5161 C   0  0  0  0  0  0  0  0  0  0  0  0
    0.5798   -7.1906   27.9330 C   0  0  0  0  0  0  0  0  0  0  0  0
    0.3978   -5.1561   26.6955 C   0  0  0  0  0  0  0  0  0  0  0  0
    2.3063  -10.0533   30.0125 C   0  0  0  0  0  0  0  0  0  0  0  0
    1.8591   -6.8254   27.4685 N   0  0  0  0  0  0  0  0  0  0  0  0
   -0.2167  -12.1055   18.5568 C   0  0  0  0  0  0  0  0  0  0  0  0
   -2.0661  -10.6994   18.1916 C   0  0  0  0  0  0  0  0  0  0  0  0
    5.2703   -7.5691   27.1123 C   0  0  0  0  0  0  0  0  0  0  0  0
    1.6204   -9.9887   17.2935 C   0  0  0  0  0  0  0  0  0  0  0  0
    1.8931   -7.9265   16.2047 C   0  0  0  0  0  0  0  0  0  0  0  0
    2.4396   -9.0801   16.7132 C   0  0  0  0  0  0  0  0  0  0  0  0
   -0.2575   -8.6234   16.8582 C   0  0  0  0  0  0  0  0  0  0  0  0
    4.0614   -7.0367   27.0106 N   0  0  0  0  0  0  0  0  0  0  0  0
   -2.9133  -11.6279   18.7578 C   0  0  0  0  0  0  0  0  0  0  0  0
    4.5688  -10.1291   29.5758 C   0  0  0  0  0  0  0  0  0  0  0  0
    2.1008   -9.0410   29.1852 N   0  0  0  0  0  0  0  0  0  0  0  0
    3.4829  -10.5697   30.2091 N   0  0  0  0  0  0  0  0  0  0  0  0
   -0.3363   -6.1172   27.5628 C   0  0  0  0  0  0  0  0  0  0  0  0
    3.0331   -7.4400   27.6362 C   0  0  0  0  0  0  0  0  0  0  0  0
    5.4553   -8.5933   27.9644 C   0  0  0  0  0  0  0  0  0  0  0  0
   -2.3870  -12.8440   19.2512 C   0  0  0  0  0  0  0  0  0  0  0  0
    0.5331   -7.6964   16.2751 C   0  0  0  0  0  0  0  0  0  0  0  0
   -0.6740  -10.8737   18.0482 C   0  0  0  0  0  0  0  0  0  0  0  0
    5.6751  -10.5870   29.7637 O   0  0  0  0  0  0  0  0  0  0  0  0
    1.7612   -5.6483   26.7172 C   0  0  0  0  0  0  0  0  0  0  0  0
    0.2221   -9.8326   17.4055 C   0  0  0  0  0  0  0  0  0  0  0  0
    4.3850   -9.0730   28.6745 C   0  0  0  0  0  0  0  0  0  0  0  0
  1  7  4  0
  1 22  4  0
  2 17  4  0
  2 20  4  0
  2 28  4  0
  3  6  1  0
  3 19  1  0
  4 19  1  0
  4 26  1  0
  5 17  4  0
  5 18  4  0
  6 20  1  0
  6 26  1  0
  7 24  4  0
  8 15  4  0
  8 24  4  0
  9 14  4  0
  9 21  4  0
 10 12  4  0
 10 27  4  0
 11 12  4  0
 11 23  4  0
 13 23  4  0
 13 27  4  0
 14 20  4  0
 15 22  4  0
 16 18  4  0
 16 25  2  0
 16 28  4  0
 21 28  4  0
 24 27  1  0
M  END
$$$$

 Created by Python create_sdf_string function

 28 31  0  0  0  0  0  0  0  0999 V2000
   -1.0054  -13.0622   19.1198 C   0  0  0  0  0  0  0  0  0  0  0  0
    3.1478   -8.5360   28.5161 C   0  0  0  0  0  0  0  0  0  0  0  0
    0.5798   -7.1906   27.9330 C   0  0  0  0  0  0  0  0  0  0  0  0
    0.3978   -5.1561   26.6955 C   0  0  0  0  0  0  0  0  0  0  0  0
    2.3063  -10.0533   30.0125 C   0  0  0  0  0  0  0  0  0  0  0  0
    1.8591   -6.8254   27.4685 N   0  0  0  0  0  0  0  0  0  0  0  0
   -0.2167  -12.1055   18.5568 C   0  0  0  0  0  0  0  0  0  0  0  0
   -2.0661  -10.6994   18.1916 C   0  0  0  0  0  0  0  0  0  0  0  0
    5.2703   -7.5691   27.1123 C   0  0  0  0  0  0  0  0  0  0  0  0
    1.6204   -9.9887   17.2935 C   0  0  0  0  0  0  0  0  0  0  0  0
    1.8931   -7.9265   16.2047 C   0  0  0  0  0  0  0  0  0  0  0  0
    2.4396   -9.0801   16.7132 C   0  0  0  0  0  0  0  0  0  0  0  0
   -0.2575   -8.6234   16.8582 C   0  0  0  0  0  0  0  0  0  0  0  0
    4.0614   -7.0367   27.0106 N   0  0  0  0  0  0  0  0  0  0  0  0
   -2.9133  -11.6279   18.7578 C   0  0  0  0  0  0  0  0  0  0  0  0
    4.5688  -10.1291   29.5758 C   0  0  0  0  0  0  0  0  0  0  0  0
    2.1008   -9.0410   29.1852 N   0  0  0  0  0  0  0  0  0  0  0  0
    3.4829  -10.5697   30.2091 N   0  0  0  0  0  0  0  0  0  0  0  0
   -0.3363   -6.1172   27.5628 C   0  0  0  0  0  0  0  0  0  0  0  0
    3.0331   -7.4400   27.6362 C   0  0  0  0  0  0  0  0  0  0  0  0
    5.4553   -8.5933   27.9644 C   0  0  0  0  0  0  0  0  0  0  0  0
   -2.3870  -12.8440   19.2512 C   0  0  0  0  0  0  0  0  0  0  0  0
    0.5331   -7.6964   16.2751 C   0  0  0  0  0  0  0  0  0  0  0  0
   -0.6740  -10.8737   18.0482 C   0  0  0  0  0  0  0  0  0  0  0  0
    5.6751  -10.5870   29.7637 O   0  0  0  0  0  0  0  0  0  0  0  0
    1.7612   -5.6483   26.7172 C   0  0  0  0  0  0  0  0  0  0  0  0
    0.2221   -9.8326   17.4055 C   0  0  0  0  0  0  0  0  0  0  0  0
    4.3850   -9.0730   28.6745 C   0  0  0  0  0  0  0  0  0  0  0  0
  1  7  4  0
  1 22  4  0
  2 17  4  0
  2 20  4  0
  2 28  4  0
  3  6  1  0
  3 19  1  0
  4 19  1  0
  4 26  1  0
  5 17  4  0
  5 18  4  0
  6 20  1  0
  6 26  1  0
  7 24  4  0
  8 15  4  0
  8 24  4  0
  9 14  4  0
  9 21  4  0
 10 12  4  0
 10 27  4  0
 11 12  4  0
 11 23  4  0
 13 23  4  0
 13 27  4  0
 14 20  4  0
 15 22  4  0
 16 18  4  0
 16 25  2  0
 16 28  4  0
 21 28  4  0
 24 27  1  0
M  END
$$$$

 Created by Python create_sdf_string function

 28 31  0  0  0  0  0  0  0  0999 V2000
   -1.0054  -13.0622   19.1198 C   0  0  0  0  0  0  0  0  0  0  0  0
    3.1478   -8.5360   28.5161 C   0  0  0  0  0  0  0  0  0  0  0  0
    0.5798   -7.1906   27.9330 C   0  0  0  0  0  0  0  0  0  0  0  0
    0.3978   -5.1561   26.6955 C   0  0  0  0  0  0  0  0  0  0  0  0
    2.3063  -10.0533   30.0125 C   0  0  0  0  0  0  0  0  0  0  0  0
    1.8591   -6.8254   27.4685 N   0  0  0  0  0  0  0  0  0  0  0  0
   -0.2167  -12.1055   18.5568 C   0  0  0  0  0  0  0  0  0  0  0  0
   -2.0661  -10.6994   18.1916 C   0  0  0  0  0  0  0  0  0  0  0  0
    5.2703   -7.5691   27.1123 C   0  0  0  0  0  0  0  0  0  0  0  0
    1.6204   -9.9887   17.2935 C   0  0  0  0  0  0  0  0  0  0  0  0
    1.8931   -7.9265   16.2047 C   0  0  0  0  0  0  0  0  0  0  0  0
    2.4396   -9.0801   16.7132 C   0  0  0  0  0  0  0  0  0  0  0  0
   -0.2575   -8.6234   16.8582 C   0  0  0  0  0  0  0  0  0  0  0  0
    4.0614   -7.0367   27.0106 N   0  0  0  0  0  0  0  0  0  0  0  0
   -2.9133  -11.6279   18.7578 C   0  0  0  0  0  0  0  0  0  0  0  0
    4.5688  -10.1291   29.5758 C   0  0  0  0  0  0  0  0  0  0  0  0
    2.1008   -9.0410   29.1852 N   0  0  0  0  0  0  0  0  0  0  0  0
    3.4829  -10.5697   30.2091 N   0  0  0  0  0  0  0  0  0  0  0  0
   -0.3363   -6.1172   27.5628 C   0  0  0  0  0  0  0  0  0  0  0  0
    3.0331   -7.4400   27.6362 C   0  0  0  0  0  0  0  0  0  0  0  0
    5.4553   -8.5933   27.9644 C   0  0  0  0  0  0  0  0  0  0  0  0
   -2.3870  -12.8440   19.2512 C   0  0  0  0  0  0  0  0  0  0  0  0
    0.5331   -7.6964   16.2751 C   0  0  0  0  0  0  0  0  0  0  0  0
   -0.6740  -10.8737   18.0482 C   0  0  0  0  0  0  0  0  0  0  0  0
    5.6751  -10.5870   29.7637 O   0  0  0  0  0  0  0  0  0  0  0  0
    1.7612   -5.6483   26.7172 C   0  0  0  0  0  0  0  0  0  0  0  0
    0.2221   -9.8326   17.4055 C   0  0  0  0  0  0  0  0  0  0  0  0
    4.3850   -9.0730   28.6745 C   0  0  0  0  0  0  0  0  0  0  0  0
  1  7  4  0
  1 22  4  0
  2 17  4  0
  2 20  4  0
  2 28  4  0
  3  6  1  0
  3 19  1  0
  4 19  1  0
  4 26  1  0
  5 17  4  0
  5 18  4  0
  6 20  1  0
  6 26  1  0
  7 24  4  0
  8 15  4  0
  8 24  4  0
  9 14  4  0
  9 21  4  0
 10 12  4  0
 10 27  4  0
 11 12  4  0
 11 23  4  0
 13 23  4  0
 13 27  4  0
 14 20  4  0
 15 22  4  0
 16 18  4  0
 16 25  2  0
 16 28  4  0
 21 28  4  0
 24 27  1  0
M  END
$$$$

 Created by Python create_sdf_string function

 28 31  0  0  0  0  0  0  0  0999 V2000
   -1.0054  -13.0622   19.1198 C   0  0  0  0  0  0  0  0  0  0  0  0
    3.1478   -8.5360   28.5161 C   0  0  0  0  0  0  0  0  0  0  0  0
    0.5798   -7.1906   27.9330 C   0  0  0  0  0  0  0  0  0  0  0  0
    0.3978   -5.1561   26.6955 C   0  0  0  0  0  0  0  0  0  0  0  0
    2.3063  -10.0533   30.0125 C   0  0  0  0  0  0  0  0  0  0  0  0
    1.8591   -6.8254   27.4685 N   0  0  0  0  0  0  0  0  0  0  0  0
   -0.2167  -12.1055   18.5568 C   0  0  0  0  0  0  0  0  0  0  0  0
   -2.0661  -10.6994   18.1916 C   0  0  0  0  0  0  0  0  0  0  0  0
    5.2703   -7.5691   27.1123 C   0  0  0  0  0  0  0  0  0  0  0  0
    1.6204   -9.9887   17.2935 C   0  0  0  0  0  0  0  0  0  0  0  0
    1.8931   -7.9265   16.2047 C   0  0  0  0  0  0  0  0  0  0  0  0
    2.4396   -9.0801   16.7132 C   0  0  0  0  0  0  0  0  0  0  0  0
   -0.2575   -8.6234   16.8582 C   0  0  0  0  0  0  0  0  0  0  0  0
    4.0614   -7.0367   27.0106 N   0  0  0  0  0  0  0  0  0  0  0  0
   -2.9133  -11.6279   18.7578 C   0  0  0  0  0  0  0  0  0  0  0  0
    4.5688  -10.1291   29.5758 C   0  0  0  0  0  0  0  0  0  0  0  0
    2.1008   -9.0410   29.1852 N   0  0  0  0  0  0  0  0  0  0  0  0
    3.4829  -10.5697   30.2091 N   0  0  0  0  0  0  0  0  0  0  0  0
   -0.3363   -6.1172   27.5628 C   0  0  0  0  0  0  0  0  0  0  0  0
    3.0331   -7.4400   27.6362 C   0  0  0  0  0  0  0  0  0  0  0  0
    5.4553   -8.5933   27.9644 C   0  0  0  0  0  0  0  0  0  0  0  0
   -2.3870  -12.8440   19.2512 C   0  0  0  0  0  0  0  0  0  0  0  0
    0.5331   -7.6964   16.2751 C   0  0  0  0  0  0  0  0  0  0  0  0
   -0.6740  -10.8737   18.0482 C   0  0  0  0  0  0  0  0  0  0  0  0
    5.6751  -10.5870   29.7637 O   0  0  0  0  0  0  0  0  0  0  0  0
    1.7612   -5.6483   26.7172 C   0  0  0  0  0  0  0  0  0  0  0  0
    0.2221   -9.8326   17.4055 C   0  0  0  0  0  0  0  0  0  0  0  0
    4.3850   -9.0730   28.6745 C   0  0  0  0  0  0  0  0  0  0  0  0
  1  7  4  0
  1 22  4  0
  2 17  4  0
  2 20  4  0
  2 28  4  0
  3  6  1  0
  3 19  1  0
  4 19  1  0
  4 26  1  0
  5 17  4  0
  5 18  4  0
  6 20  1  0
  6 26  1  0
  7 24  4  0
  8 15  4  0
  8 24  4  0
  9 14  4  0
  9 21  4  0
 10 12  4  0
 10 27  4  0
 11 12  4  0
 11 23  4  0
 13 23  4  0
 13 27  4  0
 14 20  4  0
 15 22  4  0
 16 18  4  0
 16 25  2  0
 16 28  4  0
 21 28  4  0
 24 27  1  0
M  END
$$$$

 Created by Python create_sdf_string function

 28 31  0  0  0  0  0  0  0  0999 V2000
   -1.0054  -13.0622   19.1198 C   0  0  0  0  0  0  0  0  0  0  0  0
    3.1478   -8.5360   28.5161 C   0  0  0  0  0  0  0  0  0  0  0  0
    0.5798   -7.1906   27.9330 C   0  0  0  0  0  0  0  0  0  0  0  0
    0.3978   -5.1561   26.6955 C   0  0  0  0  0  0  0  0  0  0  0  0
    2.3063  -10.0533   30.0125 C   0  0  0  0  0  0  0  0  0  0  0  0
    1.8591   -6.8254   27.4685 N   0  0  0  0  0  0  0  0  0  0  0  0
   -0.2167  -12.1055   18.5568 C   0  0  0  0  0  0  0  0  0  0  0  0
   -2.0661  -10.6994   18.1916 C   0  0  0  0  0  0  0  0  0  0  0  0
    5.2703   -7.5691   27.1123 C   0  0  0  0  0  0  0  0  0  0  0  0
    1.6204   -9.9887   17.2935 C   0  0  0  0  0  0  0  0  0  0  0  0
    1.8931   -7.9265   16.2047 C   0  0  0  0  0  0  0  0  0  0  0  0
    2.4396   -9.0801   16.7132 C   0  0  0  0  0  0  0  0  0  0  0  0
   -0.2575   -8.6234   16.8582 C   0  0  0  0  0  0  0  0  0  0  0  0
    4.0614   -7.0367   27.0106 N   0  0  0  0  0  0  0  0  0  0  0  0
   -2.9133  -11.6279   18.7578 C   0  0  0  0  0  0  0  0  0  0  0  0
    4.5688  -10.1291   29.5758 C   0  0  0  0  0  0  0  0  0  0  0  0
    2.1008   -9.0410   29.1852 N   0  0  0  0  0  0  0  0  0  0  0  0
    3.4829  -10.5697   30.2091 N   0  0  0  0  0  0  0  0  0  0  0  0
   -0.3363   -6.1172   27.5628 C   0  0  0  0  0  0  0  0  0  0  0  0
    3.0331   -7.4400   27.6362 C   0  0  0  0  0  0  0  0  0  0  0  0
    5.4553   -8.5933   27.9644 C   0  0  0  0  0  0  0  0  0  0  0  0
   -2.3870  -12.8440   19.2512 C   0  0  0  0  0  0  0  0  0  0  0  0
    0.5331   -7.6964   16.2751 C   0  0  0  0  0  0  0  0  0  0  0  0
   -0.6740  -10.8737   18.0482 C   0  0  0  0  0  0  0  0  0  0  0  0
    5.6751  -10.5870   29.7637 O   0  0  0  0  0  0  0  0  0  0  0  0
    1.7612   -5.6483   26.7172 C   0  0  0  0  0  0  0  0  0  0  0  0
    0.2221   -9.8326   17.4055 C   0  0  0  0  0  0  0  0  0  0  0  0
    4.3850   -9.0730   28.6745 C   0  0  0  0  0  0  0  0  0  0  0  0
  1  7  4  0
  1 22  4  0
  2 17  4  0
  2 20  4  0
  2 28  4  0
  3  6  1  0
  3 19  1  0
  4 19  1  0
  4 26  1  0
  5 17  4  0
  5 18  4  0
  6 20  1  0
  6 26  1  0
  7 24  4  0
  8 15  4  0
  8 24  4  0
  9 14  4  0
  9 21  4  0
 10 12  4  0
 10 27  4  0
 11 12  4  0
 11 23  4  0
 13 23  4  0
 13 27  4  0
 14 20  4  0
 15 22  4  0
 16 18  4  0
 16 25  2  0
 16 28  4  0
 21 28  4  0
 24 27  1  0
M  END
$$$$

 Created by Python create_sdf_string function

 28 31  0  0  0  0  0  0  0  0999 V2000
   -1.0054  -13.0622   19.1198 C   0  0  0  0  0  0  0  0  0  0  0  0
    3.1478   -8.5360   28.5161 C   0  0  0  0  0  0  0  0  0  0  0  0
    0.5798   -7.1906   27.9330 C   0  0  0  0  0  0  0  0  0  0  0  0
    0.3978   -5.1561   26.6955 C   0  0  0  0  0  0  0  0  0  0  0  0
    2.3063  -10.0533   30.0125 C   0  0  0  0  0  0  0  0  0  0  0  0
    1.8591   -6.8254   27.4685 N   0  0  0  0  0  0  0  0  0  0  0  0
   -0.2167  -12.1055   18.5568 C   0  0  0  0  0  0  0  0  0  0  0  0
   -2.0661  -10.6994   18.1916 C   0  0  0  0  0  0  0  0  0  0  0  0
    5.2703   -7.5691   27.1123 C   0  0  0  0  0  0  0  0  0  0  0  0
    1.6204   -9.9887   17.2935 C   0  0  0  0  0  0  0  0  0  0  0  0
    1.8931   -7.9265   16.2047 C   0  0  0  0  0  0  0  0  0  0  0  0
    2.4396   -9.0801   16.7132 C   0  0  0  0  0  0  0  0  0  0  0  0
   -0.2575   -8.6234   16.8582 C   0  0  0  0  0  0  0  0  0  0  0  0
    4.0614   -7.0367   27.0106 N   0  0  0  0  0  0  0  0  0  0  0  0
   -2.9133  -11.6279   18.7578 C   0  0  0  0  0  0  0  0  0  0  0  0
    4.5688  -10.1291   29.5758 C   0  0  0  0  0  0  0  0  0  0  0  0
    2.1008   -9.0410   29.1852 N   0  0  0  0  0  0  0  0  0  0  0  0
    3.4829  -10.5697   30.2091 N   0  0  0  0  0  0  0  0  0  0  0  0
   -0.3363   -6.1172   27.5628 C   0  0  0  0  0  0  0  0  0  0  0  0
    3.0331   -7.4400   27.6362 C   0  0  0  0  0  0  0  0  0  0  0  0
    5.4553   -8.5933   27.9644 C   0  0  0  0  0  0  0  0  0  0  0  0
   -2.3870  -12.8440   19.2512 C   0  0  0  0  0  0  0  0  0  0  0  0
    0.5331   -7.6964   16.2751 C   0  0  0  0  0  0  0  0  0  0  0  0
   -0.6740  -10.8737   18.0482 C   0  0  0  0  0  0  0  0  0  0  0  0
    5.6751  -10.5870   29.7637 O   0  0  0  0  0  0  0  0  0  0  0  0
    1.7612   -5.6483   26.7172 C   0  0  0  0  0  0  0  0  0  0  0  0
    0.2221   -9.8326   17.4055 C   0  0  0  0  0  0  0  0  0  0  0  0
    4.3850   -9.0730   28.6745 C   0  0  0  0  0  0  0  0  0  0  0  0
  1  7  4  0
  1 22  4  0
  2 17  4  0
  2 20  4  0
  2 28  4  0
  3  6  1  0
  3 19  1  0
  4 19  1  0
  4 26  1  0
  5 17  4  0
  5 18  4  0
  6 20  1  0
  6 26  1  0
  7 24  4  0
  8 15  4  0
  8 24  4  0
  9 14  4  0
  9 21  4  0
 10 12  4  0
 10 27  4  0
 11 12  4  0
 11 23  4  0
 13 23  4  0
 13 27  4  0
 14 20  4  0
 15 22  4  0
 16 18  4  0
 16 25  2  0
 16 28  4  0
 21 28  4  0
 24 27  1  0
M  END
$$$$

 Created by Python create_sdf_string function

 28 31  0  0  0  0  0  0  0  0999 V2000
   -1.0054  -13.0622   19.1198 C   0  0  0  0  0  0  0  0  0  0  0  0
    3.1478   -8.5360   28.5161 C   0  0  0  0  0  0  0  0  0  0  0  0
    0.5798   -7.1906   27.9330 C   0  0  0  0  0  0  0  0  0  0  0  0
    0.3978   -5.1561   26.6955 C   0  0  0  0  0  0  0  0  0  0  0  0
    2.3063  -10.0533   30.0125 C   0  0  0  0  0  0  0  0  0  0  0  0
    1.8591   -6.8254   27.4685 N   0  0  0  0  0  0  0  0  0  0  0  0
   -0.2167  -12.1055   18.5568 C   0  0  0  0  0  0  0  0  0  0  0  0
   -2.0661  -10.6994   18.1916 C   0  0  0  0  0  0  0  0  0  0  0  0
    5.2703   -7.5691   27.1123 C   0  0  0  0  0  0  0  0  0  0  0  0
    1.6204   -9.9887   17.2935 C   0  0  0  0  0  0  0  0  0  0  0  0
    1.8931   -7.9265   16.2047 C   0  0  0  0  0  0  0  0  0  0  0  0
    2.4396   -9.0801   16.7132 C   0  0  0  0  0  0  0  0  0  0  0  0
   -0.2575   -8.6234   16.8582 C   0  0  0  0  0  0  0  0  0  0  0  0
    4.0614   -7.0367   27.0106 N   0  0  0  0  0  0  0  0  0  0  0  0
   -2.9133  -11.6279   18.7578 C   0  0  0  0  0  0  0  0  0  0  0  0
    4.5688  -10.1291   29.5758 C   0  0  0  0  0  0  0  0  0  0  0  0
    2.1008   -9.0410   29.1852 N   0  0  0  0  0  0  0  0  0  0  0  0
    3.4829  -10.5697   30.2091 N   0  0  0  0  0  0  0  0  0  0  0  0
   -0.3363   -6.1172   27.5628 C   0  0  0  0  0  0  0  0  0  0  0  0
    3.0331   -7.4400   27.6362 C   0  0  0  0  0  0  0  0  0  0  0  0
    5.4553   -8.5933   27.9644 C   0  0  0  0  0  0  0  0  0  0  0  0
   -2.3870  -12.8440   19.2512 C   0  0  0  0  0  0  0  0  0  0  0  0
    0.5331   -7.6964   16.2751 C   0  0  0  0  0  0  0  0  0  0  0  0
   -0.6740  -10.8737   18.0482 C   0  0  0  0  0  0  0  0  0  0  0  0
    5.6751  -10.5870   29.7637 O   0  0  0  0  0  0  0  0  0  0  0  0
    1.7612   -5.6483   26.7172 C   0  0  0  0  0  0  0  0  0  0  0  0
    0.2221   -9.8326   17.4055 C   0  0  0  0  0  0  0  0  0  0  0  0
    4.3850   -9.0730   28.6745 C   0  0  0  0  0  0  0  0  0  0  0  0
  1  7  4  0
  1 22  4  0
  2 17  4  0
  2 20  4  0
  2 28  4  0
  3  6  1  0
  3 19  1  0
  4 19  1  0
  4 26  1  0
  5 17  4  0
  5 18  4  0
  6 20  1  0
  6 26  1  0
  7 24  4  0
  8 15  4  0
  8 24  4  0
  9 14  4  0
  9 21  4  0
 10 12  4  0
 10 27  4  0
 11 12  4  0
 11 23  4  0
 13 23  4  0
 13 27  4  0
 14 20  4  0
 15 22  4  0
 16 18  4  0
 16 25  2  0
 16 28  4  0
 21 28  4  0
 24 27  1  0
M  END
$$$$

 Created by Python create_sdf_string function

 28 31  0  0  0  0  0  0  0  0999 V2000
   -1.0054  -13.0622   19.1198 C   0  0  0  0  0  0  0  0  0  0  0  0
    3.1478   -8.5360   28.5161 C   0  0  0  0  0  0  0  0  0  0  0  0
    0.5798   -7.1906   27.9330 C   0  0  0  0  0  0  0  0  0  0  0  0
    0.3978   -5.1561   26.6955 C   0  0  0  0  0  0  0  0  0  0  0  0
    2.3063  -10.0533   30.0125 C   0  0  0  0  0  0  0  0  0  0  0  0
    1.8591   -6.8254   27.4685 N   0  0  0  0  0  0  0  0  0  0  0  0
   -0.2167  -12.1055   18.5568 C   0  0  0  0  0  0  0  0  0  0  0  0
   -2.0661  -10.6994   18.1916 C   0  0  0  0  0  0  0  0  0  0  0  0
    5.2703   -7.5691   27.1123 C   0  0  0  0  0  0  0  0  0  0  0  0
    1.6204   -9.9887   17.2935 C   0  0  0  0  0  0  0  0  0  0  0  0
    1.8931   -7.9265   16.2047 C   0  0  0  0  0  0  0  0  0  0  0  0
    2.4396   -9.0801   16.7132 C   0  0  0  0  0  0  0  0  0  0  0  0
   -0.2575   -8.6234   16.8582 C   0  0  0  0  0  0  0  0  0  0  0  0
    4.0614   -7.0367   27.0106 N   0  0  0  0  0  0  0  0  0  0  0  0
   -2.9133  -11.6279   18.7578 C   0  0  0  0  0  0  0  0  0  0  0  0
    4.5688  -10.1291   29.5758 C   0  0  0  0  0  0  0  0  0  0  0  0
    2.1008   -9.0410   29.1852 N   0  0  0  0  0  0  0  0  0  0  0  0
    3.4829  -10.5697   30.2091 N   0  0  0  0  0  0  0  0  0  0  0  0
   -0.3363   -6.1172   27.5628 C   0  0  0  0  0  0  0  0  0  0  0  0
    3.0331   -7.4400   27.6362 C   0  0  0  0  0  0  0  0  0  0  0  0
    5.4553   -8.5933   27.9644 C   0  0  0  0  0  0  0  0  0  0  0  0
   -2.3870  -12.8440   19.2512 C   0  0  0  0  0  0  0  0  0  0  0  0
    0.5331   -7.6964   16.2751 C   0  0  0  0  0  0  0  0  0  0  0  0
   -0.6740  -10.8737   18.0482 C   0  0  0  0  0  0  0  0  0  0  0  0
    5.6751  -10.5870   29.7637 O   0  0  0  0  0  0  0  0  0  0  0  0
    1.7612   -5.6483   26.7172 C   0  0  0  0  0  0  0  0  0  0  0  0
    0.2221   -9.8326   17.4055 C   0  0  0  0  0  0  0  0  0  0  0  0
    4.3850   -9.0730   28.6745 C   0  0  0  0  0  0  0  0  0  0  0  0
  1  7  4  0
  1 22  4  0
  2 17  4  0
  2 20  4  0
  2 28  4  0
  3  6  1  0
  3 19  1  0
  4 19  1  0
  4 26  1  0
  5 17  4  0
  5 18  4  0
  6 20  1  0
  6 26  1  0
  7 24  4  0
  8 15  4  0
  8 24  4  0
  9 14  4  0
  9 21  4  0
 10 12  4  0
 10 27  4  0
 11 12  4  0
 11 23  4  0
 13 23  4  0
 13 27  4  0
 14 20  4  0
 15 22  4  0
 16 18  4  0
 16 25  2  0
 16 28  4  0
 21 28  4  0
 24 27  1  0
M  END
$$$$

 Created by Python create_sdf_string function

 28 31  0  0  0  0  0  0  0  0999 V2000
   -1.0054  -13.0622   19.1198 C   0  0  0  0  0  0  0  0  0  0  0  0
    3.1478   -8.5360   28.5161 C   0  0  0  0  0  0  0  0  0  0  0  0
    0.5798   -7.1906   27.9330 C   0  0  0  0  0  0  0  0  0  0  0  0
    0.3978   -5.1561   26.6955 C   0  0  0  0  0  0  0  0  0  0  0  0
    2.3063  -10.0533   30.0125 C   0  0  0  0  0  0  0  0  0  0  0  0
    1.8591   -6.8254   27.4685 N   0  0  0  0  0  0  0  0  0  0  0  0
   -0.2167  -12.1055   18.5568 C   0  0  0  0  0  0  0  0  0  0  0  0
   -2.0661  -10.6994   18.1916 C   0  0  0  0  0  0  0  0  0  0  0  0
    5.2703   -7.5691   27.1123 C   0  0  0  0  0  0  0  0  0  0  0  0
    1.6204   -9.9887   17.2935 C   0  0  0  0  0  0  0  0  0  0  0  0
    1.8931   -7.9265   16.2047 C   0  0  0  0  0  0  0  0  0  0  0  0
    2.4396   -9.0801   16.7132 C   0  0  0  0  0  0  0  0  0  0  0  0
   -0.2575   -8.6234   16.8582 C   0  0  0  0  0  0  0  0  0  0  0  0
    4.0614   -7.0367   27.0106 N   0  0  0  0  0  0  0  0  0  0  0  0
   -2.9133  -11.6279   18.7578 C   0  0  0  0  0  0  0  0  0  0  0  0
    4.5688  -10.1291   29.5758 C   0  0  0  0  0  0  0  0  0  0  0  0
    2.1008   -9.0410   29.1852 N   0  0  0  0  0  0  0  0  0  0  0  0
    3.4829  -10.5697   30.2091 N   0  0  0  0  0  0  0  0  0  0  0  0
   -0.3363   -6.1172   27.5628 C   0  0  0  0  0  0  0  0  0  0  0  0
    3.0331   -7.4400   27.6362 C   0  0  0  0  0  0  0  0  0  0  0  0
    5.4553   -8.5933   27.9644 C   0  0  0  0  0  0  0  0  0  0  0  0
   -2.3870  -12.8440   19.2512 C   0  0  0  0  0  0  0  0  0  0  0  0
    0.5331   -7.6964   16.2751 C   0  0  0  0  0  0  0  0  0  0  0  0
   -0.6740  -10.8737   18.0482 C   0  0  0  0  0  0  0  0  0  0  0  0
    5.6751  -10.5870   29.7637 O   0  0  0  0  0  0  0  0  0  0  0  0
    1.7612   -5.6483   26.7172 C   0  0  0  0  0  0  0  0  0  0  0  0
    0.2221   -9.8326   17.4055 C   0  0  0  0  0  0  0  0  0  0  0  0
    4.3850   -9.0730   28.6745 C   0  0  0  0  0  0  0  0  0  0  0  0
  1  7  4  0
  1 22  4  0
  2 17  4  0
  2 20  4  0
  2 28  4  0
  3  6  1  0
  3 19  1  0
  4 19  1  0
  4 26  1  0
  5 17  4  0
  5 18  4  0
  6 20  1  0
  6 26  1  0
  7 24  4  0
  8 15  4  0
  8 24  4  0
  9 14  4  0
  9 21  4  0
 10 12  4  0
 10 27  4  0
 11 12  4  0
 11 23  4  0
 13 23  4  0
 13 27  4  0
 14 20  4  0
 15 22  4  0
 16 18  4  0
 16 25  2  0
 16 28  4  0
 21 28  4  0
 24 27  1  0
M  END
$$$$

 Created by Python create_sdf_string function

 28 31  0  0  0  0  0  0  0  0999 V2000
   -1.0054  -13.0622   19.1198 C   0  0  0  0  0  0  0  0  0  0  0  0
    3.1478   -8.5360   28.5161 C   0  0  0  0  0  0  0  0  0  0  0  0
    0.5798   -7.1906   27.9330 C   0  0  0  0  0  0  0  0  0  0  0  0
    0.3978   -5.1561   26.6955 C   0  0  0  0  0  0  0  0  0  0  0  0
    2.3063  -10.0533   30.0125 C   0  0  0  0  0  0  0  0  0  0  0  0
    1.8591   -6.8254   27.4685 N   0  0  0  0  0  0  0  0  0  0  0  0
   -0.2167  -12.1055   18.5568 C   0  0  0  0  0  0  0  0  0  0  0  0
   -2.0661  -10.6994   18.1916 C   0  0  0  0  0  0  0  0  0  0  0  0
    5.2703   -7.5691   27.1123 C   0  0  0  0  0  0  0  0  0  0  0  0
    1.6204   -9.9887   17.2935 C   0  0  0  0  0  0  0  0  0  0  0  0
    1.8931   -7.9265   16.2047 C   0  0  0  0  0  0  0  0  0  0  0  0
    2.4396   -9.0801   16.7132 C   0  0  0  0  0  0  0  0  0  0  0  0
   -0.2575   -8.6234   16.8582 C   0  0  0  0  0  0  0  0  0  0  0  0
    4.0614   -7.0367   27.0106 N   0  0  0  0  0  0  0  0  0  0  0  0
   -2.9133  -11.6279   18.7578 C   0  0  0  0  0  0  0  0  0  0  0  0
    4.5688  -10.1291   29.5758 C   0  0  0  0  0  0  0  0  0  0  0  0
    2.1008   -9.0410   29.1852 N   0  0  0  0  0  0  0  0  0  0  0  0
    3.4829  -10.5697   30.2091 N   0  0  0  0  0  0  0  0  0  0  0  0
   -0.3363   -6.1172   27.5628 C   0  0  0  0  0  0  0  0  0  0  0  0
    3.0331   -7.4400   27.6362 C   0  0  0  0  0  0  0  0  0  0  0  0
    5.4553   -8.5933   27.9644 C   0  0  0  0  0  0  0  0  0  0  0  0
   -2.3870  -12.8440   19.2512 C   0  0  0  0  0  0  0  0  0  0  0  0
    0.5331   -7.6964   16.2751 C   0  0  0  0  0  0  0  0  0  0  0  0
   -0.6740  -10.8737   18.0482 C   0  0  0  0  0  0  0  0  0  0  0  0
    5.6751  -10.5870   29.7637 O   0  0  0  0  0  0  0  0  0  0  0  0
    1.7612   -5.6483   26.7172 C   0  0  0  0  0  0  0  0  0  0  0  0
    0.2221   -9.8326   17.4055 C   0  0  0  0  0  0  0  0  0  0  0  0
    4.3850   -9.0730   28.6745 C   0  0  0  0  0  0  0  0  0  0  0  0
  1  7  4  0
  1 22  4  0
  2 17  4  0
  2 20  4  0
  2 28  4  0
  3  6  1  0
  3 19  1  0
  4 19  1  0
  4 26  1  0
  5 17  4  0
  5 18  4  0
  6 20  1  0
  6 26  1  0
  7 24  4  0
  8 15  4  0
  8 24  4  0
  9 14  4  0
  9 21  4  0
 10 12  4  0
 10 27  4  0
 11 12  4  0
 11 23  4  0
 13 23  4  0
 13 27  4  0
 14 20  4  0
 15 22  4  0
 16 18  4  0
 16 25  2  0
 16 28  4  0
 21 28  4  0
 24 27  1  0
M  END
$$$$

 Created by Python create_sdf_string function

 28 31  0  0  0  0  0  0  0  0999 V2000
   -1.0054  -13.0622   19.1198 C   0  0  0  0  0  0  0  0  0  0  0  0
    3.1478   -8.5360   28.5161 C   0  0  0  0  0  0  0  0  0  0  0  0
    0.5798   -7.1906   27.9330 C   0  0  0  0  0  0  0  0  0  0  0  0
    0.3978   -5.1561   26.6955 C   0  0  0  0  0  0  0  0  0  0  0  0
    2.3063  -10.0533   30.0125 C   0  0  0  0  0  0  0  0  0  0  0  0
    1.8591   -6.8254   27.4685 N   0  0  0  0  0  0  0  0  0  0  0  0
   -0.2167  -12.1055   18.5568 C   0  0  0  0  0  0  0  0  0  0  0  0
   -2.0661  -10.6994   18.1916 C   0  0  0  0  0  0  0  0  0  0  0  0
    5.2703   -7.5691   27.1123 C   0  0  0  0  0  0  0  0  0  0  0  0
    1.6204   -9.9887   17.2935 C   0  0  0  0  0  0  0  0  0  0  0  0
    1.8931   -7.9265   16.2047 C   0  0  0  0  0  0  0  0  0  0  0  0
    2.4396   -9.0801   16.7132 C   0  0  0  0  0  0  0  0  0  0  0  0
   -0.2575   -8.6234   16.8582 C   0  0  0  0  0  0  0  0  0  0  0  0
    4.0614   -7.0367   27.0106 N   0  0  0  0  0  0  0  0  0  0  0  0
   -2.9133  -11.6279   18.7578 C   0  0  0  0  0  0  0  0  0  0  0  0
    4.5688  -10.1291   29.5758 C   0  0  0  0  0  0  0  0  0  0  0  0
    2.1008   -9.0410   29.1852 N   0  0  0  0  0  0  0  0  0  0  0  0
    3.4829  -10.5697   30.2091 N   0  0  0  0  0  0  0  0  0  0  0  0
   -0.3363   -6.1172   27.5628 C   0  0  0  0  0  0  0  0  0  0  0  0
    3.0331   -7.4400   27.6362 C   0  0  0  0  0  0  0  0  0  0  0  0
    5.4553   -8.5933   27.9644 C   0  0  0  0  0  0  0  0  0  0  0  0
   -2.3870  -12.8440   19.2512 C   0  0  0  0  0  0  0  0  0  0  0  0
    0.5331   -7.6964   16.2751 C   0  0  0  0  0  0  0  0  0  0  0  0
   -0.6740  -10.8737   18.0482 C   0  0  0  0  0  0  0  0  0  0  0  0
    5.6751  -10.5870   29.7637 O   0  0  0  0  0  0  0  0  0  0  0  0
    1.7612   -5.6483   26.7172 C   0  0  0  0  0  0  0  0  0  0  0  0
    0.2221   -9.8326   17.4055 C   0  0  0  0  0  0  0  0  0  0  0  0
    4.3850   -9.0730   28.6745 C   0  0  0  0  0  0  0  0  0  0  0  0
  1  7  4  0
  1 22  4  0
  2 17  4  0
  2 20  4  0
  2 28  4  0
  3  6  1  0
  3 19  1  0
  4 19  1  0
  4 26  1  0
  5 17  4  0
  5 18  4  0
  6 20  1  0
  6 26  1  0
  7 24  4  0
  8 15  4  0
  8 24  4  0
  9 14  4  0
  9 21  4  0
 10 12  4  0
 10 27  4  0
 11 12  4  0
 11 23  4  0
 13 23  4  0
 13 27  4  0
 14 20  4  0
 15 22  4  0
 16 18  4  0
 16 25  2  0
 16 28  4  0
 21 28  4  0
 24 27  1  0
M  END
$$$$

 Created by Python create_sdf_string function

 28 31  0  0  0  0  0  0  0  0999 V2000
   -1.0054  -13.0622   19.1198 C   0  0  0  0  0  0  0  0  0  0  0  0
    3.1478   -8.5360   28.5161 C   0  0  0  0  0  0  0  0  0  0  0  0
    0.5798   -7.1906   27.9330 C   0  0  0  0  0  0  0  0  0  0  0  0
    0.3978   -5.1561   26.6955 C   0  0  0  0  0  0  0  0  0  0  0  0
    2.3063  -10.0533   30.0125 C   0  0  0  0  0  0  0  0  0  0  0  0
    1.8591   -6.8254   27.4685 N   0  0  0  0  0  0  0  0  0  0  0  0
   -0.2167  -12.1055   18.5568 C   0  0  0  0  0  0  0  0  0  0  0  0
   -2.0661  -10.6994   18.1916 C   0  0  0  0  0  0  0  0  0  0  0  0
    5.2703   -7.5691   27.1123 C   0  0  0  0  0  0  0  0  0  0  0  0
    1.6204   -9.9887   17.2935 C   0  0  0  0  0  0  0  0  0  0  0  0
    1.8931   -7.9265   16.2047 C   0  0  0  0  0  0  0  0  0  0  0  0
    2.4396   -9.0801   16.7132 C   0  0  0  0  0  0  0  0  0  0  0  0
   -0.2575   -8.6234   16.8582 C   0  0  0  0  0  0  0  0  0  0  0  0
    4.0614   -7.0367   27.0106 N   0  0  0  0  0  0  0  0  0  0  0  0
   -2.9133  -11.6279   18.7578 C   0  0  0  0  0  0  0  0  0  0  0  0
    4.5688  -10.1291   29.5758 C   0  0  0  0  0  0  0  0  0  0  0  0
    2.1008   -9.0410   29.1852 N   0  0  0  0  0  0  0  0  0  0  0  0
    3.4829  -10.5697   30.2091 N   0  0  0  0  0  0  0  0  0  0  0  0
   -0.3363   -6.1172   27.5628 C   0  0  0  0  0  0  0  0  0  0  0  0
    3.0331   -7.4400   27.6362 C   0  0  0  0  0  0  0  0  0  0  0  0
    5.4553   -8.5933   27.9644 C   0  0  0  0  0  0  0  0  0  0  0  0
   -2.3870  -12.8440   19.2512 C   0  0  0  0  0  0  0  0  0  0  0  0
    0.5331   -7.6964   16.2751 C   0  0  0  0  0  0  0  0  0  0  0  0
   -0.6740  -10.8737   18.0482 C   0  0  0  0  0  0  0  0  0  0  0  0
    5.6751  -10.5870   29.7637 O   0  0  0  0  0  0  0  0  0  0  0  0
    1.7612   -5.6483   26.7172 C   0  0  0  0  0  0  0  0  0  0  0  0
    0.2221   -9.8326   17.4055 C   0  0  0  0  0  0  0  0  0  0  0  0
    4.3850   -9.0730   28.6745 C   0  0  0  0  0  0  0  0  0  0  0  0
  1  7  4  0
  1 22  4  0
  2 17  4  0
  2 20  4  0
  2 28  4  0
  3  6  1  0
  3 19  1  0
  4 19  1  0
  4 26  1  0
  5 17  4  0
  5 18  4  0
  6 20  1  0
  6 26  1  0
  7 24  4  0
  8 15  4  0
  8 24  4  0
  9 14  4  0
  9 21  4  0
 10 12  4  0
 10 27  4  0
 11 12  4  0
 11 23  4  0
 13 23  4  0
 13 27  4  0
 14 20  4  0
 15 22  4  0
 16 18  4  0
 16 25  2  0
 16 28  4  0
 21 28  4  0
 24 27  1  0
M  END
$$$$

 Created by Python create_sdf_string function

 28 31  0  0  0  0  0  0  0  0999 V2000
   -1.0054  -13.0622   19.1198 C   0  0  0  0  0  0  0  0  0  0  0  0
    3.1478   -8.5360   28.5161 C   0  0  0  0  0  0  0  0  0  0  0  0
    0.5798   -7.1906   27.9330 C   0  0  0  0  0  0  0  0  0  0  0  0
    0.3978   -5.1561   26.6955 C   0  0  0  0  0  0  0  0  0  0  0  0
    2.3063  -10.0533   30.0125 C   0  0  0  0  0  0  0  0  0  0  0  0
    1.8591   -6.8254   27.4685 N   0  0  0  0  0  0  0  0  0  0  0  0
   -0.2167  -12.1055   18.5568 C   0  0  0  0  0  0  0  0  0  0  0  0
   -2.0661  -10.6994   18.1916 C   0  0  0  0  0  0  0  0  0  0  0  0
    5.2703   -7.5691   27.1123 C   0  0  0  0  0  0  0  0  0  0  0  0
    1.6204   -9.9887   17.2935 C   0  0  0  0  0  0  0  0  0  0  0  0
    1.8931   -7.9265   16.2047 C   0  0  0  0  0  0  0  0  0  0  0  0
    2.4396   -9.0801   16.7132 C   0  0  0  0  0  0  0  0  0  0  0  0
   -0.2575   -8.6234   16.8582 C   0  0  0  0  0  0  0  0  0  0  0  0
    4.0614   -7.0367   27.0106 N   0  0  0  0  0  0  0  0  0  0  0  0
   -2.9133  -11.6279   18.7578 C   0  0  0  0  0  0  0  0  0  0  0  0
    4.5688  -10.1291   29.5758 C   0  0  0  0  0  0  0  0  0  0  0  0
    2.1008   -9.0410   29.1852 N   0  0  0  0  0  0  0  0  0  0  0  0
    3.4829  -10.5697   30.2091 N   0  0  0  0  0  0  0  0  0  0  0  0
   -0.3363   -6.1172   27.5628 C   0  0  0  0  0  0  0  0  0  0  0  0
    3.0331   -7.4400   27.6362 C   0  0  0  0  0  0  0  0  0  0  0  0
    5.4553   -8.5933   27.9644 C   0  0  0  0  0  0  0  0  0  0  0  0
   -2.3870  -12.8440   19.2512 C   0  0  0  0  0  0  0  0  0  0  0  0
    0.5331   -7.6964   16.2751 C   0  0  0  0  0  0  0  0  0  0  0  0
   -0.6740  -10.8737   18.0482 C   0  0  0  0  0  0  0  0  0  0  0  0
    5.6751  -10.5870   29.7637 O   0  0  0  0  0  0  0  0  0  0  0  0
    1.7612   -5.6483   26.7172 C   0  0  0  0  0  0  0  0  0  0  0  0
    0.2221   -9.8326   17.4055 C   0  0  0  0  0  0  0  0  0  0  0  0
    4.3850   -9.0730   28.6745 C   0  0  0  0  0  0  0  0  0  0  0  0
  1  7  4  0
  1 22  4  0
  2 17  4  0
  2 20  4  0
  2 28  4  0
  3  6  1  0
  3 19  1  0
  4 19  1  0
  4 26  1  0
  5 17  4  0
  5 18  4  0
  6 20  1  0
  6 26  1  0
  7 24  4  0
  8 15  4  0
  8 24  4  0
  9 14  4  0
  9 21  4  0
 10 12  4  0
 10 27  4  0
 11 12  4  0
 11 23  4  0
 13 23  4  0
 13 27  4  0
 14 20  4  0
 15 22  4  0
 16 18  4  0
 16 25  2  0
 16 28  4  0
 21 28  4  0
 24 27  1  0
M  END
$$$$

 Created by Python create_sdf_string function

 28 31  0  0  0  0  0  0  0  0999 V2000
   -1.0054  -13.0622   19.1198 C   0  0  0  0  0  0  0  0  0  0  0  0
    3.1478   -8.5360   28.5161 C   0  0  0  0  0  0  0  0  0  0  0  0
    0.5798   -7.1906   27.9330 C   0  0  0  0  0  0  0  0  0  0  0  0
    0.3978   -5.1561   26.6955 C   0  0  0  0  0  0  0  0  0  0  0  0
    2.3063  -10.0533   30.0125 C   0  0  0  0  0  0  0  0  0  0  0  0
    1.8591   -6.8254   27.4685 N   0  0  0  0  0  0  0  0  0  0  0  0
   -0.2167  -12.1055   18.5568 C   0  0  0  0  0  0  0  0  0  0  0  0
   -2.0661  -10.6994   18.1916 C   0  0  0  0  0  0  0  0  0  0  0  0
    5.2703   -7.5691   27.1123 C   0  0  0  0  0  0  0  0  0  0  0  0
    1.6204   -9.9887   17.2935 C   0  0  0  0  0  0  0  0  0  0  0  0
    1.8931   -7.9265   16.2047 C   0  0  0  0  0  0  0  0  0  0  0  0
    2.4396   -9.0801   16.7132 C   0  0  0  0  0  0  0  0  0  0  0  0
   -0.2575   -8.6234   16.8582 C   0  0  0  0  0  0  0  0  0  0  0  0
    4.0614   -7.0367   27.0106 N   0  0  0  0  0  0  0  0  0  0  0  0
   -2.9133  -11.6279   18.7578 C   0  0  0  0  0  0  0  0  0  0  0  0
    4.5688  -10.1291   29.5758 C   0  0  0  0  0  0  0  0  0  0  0  0
    2.1008   -9.0410   29.1852 N   0  0  0  0  0  0  0  0  0  0  0  0
    3.4829  -10.5697   30.2091 N   0  0  0  0  0  0  0  0  0  0  0  0
   -0.3363   -6.1172   27.5628 C   0  0  0  0  0  0  0  0  0  0  0  0
    3.0331   -7.4400   27.6362 C   0  0  0  0  0  0  0  0  0  0  0  0
    5.4553   -8.5933   27.9644 C   0  0  0  0  0  0  0  0  0  0  0  0
   -2.3870  -12.8440   19.2512 C   0  0  0  0  0  0  0  0  0  0  0  0
    0.5331   -7.6964   16.2751 C   0  0  0  0  0  0  0  0  0  0  0  0
   -0.6740  -10.8737   18.0482 C   0  0  0  0  0  0  0  0  0  0  0  0
    5.6751  -10.5870   29.7637 O   0  0  0  0  0  0  0  0  0  0  0  0
    1.7612   -5.6483   26.7172 C   0  0  0  0  0  0  0  0  0  0  0  0
    0.2221   -9.8326   17.4055 C   0  0  0  0  0  0  0  0  0  0  0  0
    4.3850   -9.0730   28.6745 C   0  0  0  0  0  0  0  0  0  0  0  0
  1  7  4  0
  1 22  4  0
  2 17  4  0
  2 20  4  0
  2 28  4  0
  3  6  1  0
  3 19  1  0
  4 19  1  0
  4 26  1  0
  5 17  4  0
  5 18  4  0
  6 20  1  0
  6 26  1  0
  7 24  4  0
  8 15  4  0
  8 24  4  0
  9 14  4  0
  9 21  4  0
 10 12  4  0
 10 27  4  0
 11 12  4  0
 11 23  4  0
 13 23  4  0
 13 27  4  0
 14 20  4  0
 15 22  4  0
 16 18  4  0
 16 25  2  0
 16 28  4  0
 21 28  4  0
 24 27  1  0
M  END
$$$$

 Created by Python create_sdf_string function

 28 31  0  0  0  0  0  0  0  0999 V2000
   -1.0054  -13.0622   19.1198 C   0  0  0  0  0  0  0  0  0  0  0  0
    3.1478   -8.5360   28.5161 C   0  0  0  0  0  0  0  0  0  0  0  0
    0.5798   -7.1906   27.9330 C   0  0  0  0  0  0  0  0  0  0  0  0
    0.3978   -5.1561   26.6955 C   0  0  0  0  0  0  0  0  0  0  0  0
    2.3063  -10.0533   30.0125 C   0  0  0  0  0  0  0  0  0  0  0  0
    1.8591   -6.8254   27.4685 N   0  0  0  0  0  0  0  0  0  0  0  0
   -0.2167  -12.1055   18.5568 C   0  0  0  0  0  0  0  0  0  0  0  0
   -2.0661  -10.6994   18.1916 C   0  0  0  0  0  0  0  0  0  0  0  0
    5.2703   -7.5691   27.1123 C   0  0  0  0  0  0  0  0  0  0  0  0
    1.6204   -9.9887   17.2935 C   0  0  0  0  0  0  0  0  0  0  0  0
    1.8931   -7.9265   16.2047 C   0  0  0  0  0  0  0  0  0  0  0  0
    2.4396   -9.0801   16.7132 C   0  0  0  0  0  0  0  0  0  0  0  0
   -0.2575   -8.6234   16.8582 C   0  0  0  0  0  0  0  0  0  0  0  0
    4.0614   -7.0367   27.0106 N   0  0  0  0  0  0  0  0  0  0  0  0
   -2.9133  -11.6279   18.7578 C   0  0  0  0  0  0  0  0  0  0  0  0
    4.5688  -10.1291   29.5758 C   0  0  0  0  0  0  0  0  0  0  0  0
    2.1008   -9.0410   29.1852 N   0  0  0  0  0  0  0  0  0  0  0  0
    3.4829  -10.5697   30.2091 N   0  0  0  0  0  0  0  0  0  0  0  0
   -0.3363   -6.1172   27.5628 C   0  0  0  0  0  0  0  0  0  0  0  0
    3.0331   -7.4400   27.6362 C   0  0  0  0  0  0  0  0  0  0  0  0
    5.4553   -8.5933   27.9644 C   0  0  0  0  0  0  0  0  0  0  0  0
   -2.3870  -12.8440   19.2512 C   0  0  0  0  0  0  0  0  0  0  0  0
    0.5331   -7.6964   16.2751 C   0  0  0  0  0  0  0  0  0  0  0  0
   -0.6740  -10.8737   18.0482 C   0  0  0  0  0  0  0  0  0  0  0  0
    5.6751  -10.5870   29.7637 O   0  0  0  0  0  0  0  0  0  0  0  0
    1.7612   -5.6483   26.7172 C   0  0  0  0  0  0  0  0  0  0  0  0
    0.2221   -9.8326   17.4055 C   0  0  0  0  0  0  0  0  0  0  0  0
    4.3850   -9.0730   28.6745 C   0  0  0  0  0  0  0  0  0  0  0  0
  1  7  4  0
  1 22  4  0
  2 17  4  0
  2 20  4  0
  2 28  4  0
  3  6  1  0
  3 19  1  0
  4 19  1  0
  4 26  1  0
  5 17  4  0
  5 18  4  0
  6 20  1  0
  6 26  1  0
  7 24  4  0
  8 15  4  0
  8 24  4  0
  9 14  4  0
  9 21  4  0
 10 12  4  0
 10 27  4  0
 11 12  4  0
 11 23  4  0
 13 23  4  0
 13 27  4  0
 14 20  4  0
 15 22  4  0
 16 18  4  0
 16 25  2  0
 16 28  4  0
 21 28  4  0
 24 27  1  0
M  END
$$$$

 Created by Python create_sdf_string function

 28 31  0  0  0  0  0  0  0  0999 V2000
   -1.0054  -13.0622   19.1198 C   0  0  0  0  0  0  0  0  0  0  0  0
    3.1478   -8.5360   28.5161 C   0  0  0  0  0  0  0  0  0  0  0  0
    0.5798   -7.1906   27.9330 C   0  0  0  0  0  0  0  0  0  0  0  0
    0.3978   -5.1561   26.6955 C   0  0  0  0  0  0  0  0  0  0  0  0
    2.3063  -10.0533   30.0125 C   0  0  0  0  0  0  0  0  0  0  0  0
    1.8591   -6.8254   27.4685 N   0  0  0  0  0  0  0  0  0  0  0  0
   -0.2167  -12.1055   18.5568 C   0  0  0  0  0  0  0  0  0  0  0  0
   -2.0661  -10.6994   18.1916 C   0  0  0  0  0  0  0  0  0  0  0  0
    5.2703   -7.5691   27.1123 C   0  0  0  0  0  0  0  0  0  0  0  0
    1.6204   -9.9887   17.2935 C   0  0  0  0  0  0  0  0  0  0  0  0
    1.8931   -7.9265   16.2047 C   0  0  0  0  0  0  0  0  0  0  0  0
    2.4396   -9.0801   16.7132 C   0  0  0  0  0  0  0  0  0  0  0  0
   -0.2575   -8.6234   16.8582 C   0  0  0  0  0  0  0  0  0  0  0  0
    4.0614   -7.0367   27.0106 N   0  0  0  0  0  0  0  0  0  0  0  0
   -2.9133  -11.6279   18.7578 C   0  0  0  0  0  0  0  0  0  0  0  0
    4.5688  -10.1291   29.5758 C   0  0  0  0  0  0  0  0  0  0  0  0
    2.1008   -9.0410   29.1852 N   0  0  0  0  0  0  0  0  0  0  0  0
    3.4829  -10.5697   30.2091 N   0  0  0  0  0  0  0  0  0  0  0  0
   -0.3363   -6.1172   27.5628 C   0  0  0  0  0  0  0  0  0  0  0  0
    3.0331   -7.4400   27.6362 C   0  0  0  0  0  0  0  0  0  0  0  0
    5.4553   -8.5933   27.9644 C   0  0  0  0  0  0  0  0  0  0  0  0
   -2.3870  -12.8440   19.2512 C   0  0  0  0  0  0  0  0  0  0  0  0
    0.5331   -7.6964   16.2751 C   0  0  0  0  0  0  0  0  0  0  0  0
   -0.6740  -10.8737   18.0482 C   0  0  0  0  0  0  0  0  0  0  0  0
    5.6751  -10.5870   29.7637 O   0  0  0  0  0  0  0  0  0  0  0  0
    1.7612   -5.6483   26.7172 C   0  0  0  0  0  0  0  0  0  0  0  0
    0.2221   -9.8326   17.4055 C   0  0  0  0  0  0  0  0  0  0  0  0
    4.3850   -9.0730   28.6745 C   0  0  0  0  0  0  0  0  0  0  0  0
  1  7  4  0
  1 22  4  0
  2 17  4  0
  2 20  4  0
  2 28  4  0
  3  6  1  0
  3 19  1  0
  4 19  1  0
  4 26  1  0
  5 17  4  0
  5 18  4  0
  6 20  1  0
  6 26  1  0
  7 24  4  0
  8 15  4  0
  8 24  4  0
  9 14  4  0
  9 21  4  0
 10 12  4  0
 10 27  4  0
 11 12  4  0
 11 23  4  0
 13 23  4  0
 13 27  4  0
 14 20  4  0
 15 22  4  0
 16 18  4  0
 16 25  2  0
 16 28  4  0
 21 28  4  0
 24 27  1  0
M  END
$$$$

 Created by Python create_sdf_string function

 28 31  0  0  0  0  0  0  0  0999 V2000
   -1.0054  -13.0622   19.1198 C   0  0  0  0  0  0  0  0  0  0  0  0
    3.1478   -8.5360   28.5161 C   0  0  0  0  0  0  0  0  0  0  0  0
    0.5798   -7.1906   27.9330 C   0  0  0  0  0  0  0  0  0  0  0  0
    0.3978   -5.1561   26.6955 C   0  0  0  0  0  0  0  0  0  0  0  0
    2.3063  -10.0533   30.0125 C   0  0  0  0  0  0  0  0  0  0  0  0
    1.8591   -6.8254   27.4685 N   0  0  0  0  0  0  0  0  0  0  0  0
   -0.2167  -12.1055   18.5568 C   0  0  0  0  0  0  0  0  0  0  0  0
   -2.0661  -10.6994   18.1916 C   0  0  0  0  0  0  0  0  0  0  0  0
    5.2703   -7.5691   27.1123 C   0  0  0  0  0  0  0  0  0  0  0  0
    1.6204   -9.9887   17.2935 C   0  0  0  0  0  0  0  0  0  0  0  0
    1.8931   -7.9265   16.2047 C   0  0  0  0  0  0  0  0  0  0  0  0
    2.4396   -9.0801   16.7132 C   0  0  0  0  0  0  0  0  0  0  0  0
   -0.2575   -8.6234   16.8582 C   0  0  0  0  0  0  0  0  0  0  0  0
    4.0614   -7.0367   27.0106 N   0  0  0  0  0  0  0  0  0  0  0  0
   -2.9133  -11.6279   18.7578 C   0  0  0  0  0  0  0  0  0  0  0  0
    4.5688  -10.1291   29.5758 C   0  0  0  0  0  0  0  0  0  0  0  0
    2.1008   -9.0410   29.1852 N   0  0  0  0  0  0  0  0  0  0  0  0
    3.4829  -10.5697   30.2091 N   0  0  0  0  0  0  0  0  0  0  0  0
   -0.3363   -6.1172   27.5628 C   0  0  0  0  0  0  0  0  0  0  0  0
    3.0331   -7.4400   27.6362 C   0  0  0  0  0  0  0  0  0  0  0  0
    5.4553   -8.5933   27.9644 C   0  0  0  0  0  0  0  0  0  0  0  0
   -2.3870  -12.8440   19.2512 C   0  0  0  0  0  0  0  0  0  0  0  0
    0.5331   -7.6964   16.2751 C   0  0  0  0  0  0  0  0  0  0  0  0
   -0.6740  -10.8737   18.0482 C   0  0  0  0  0  0  0  0  0  0  0  0
    5.6751  -10.5870   29.7637 O   0  0  0  0  0  0  0  0  0  0  0  0
    1.7612   -5.6483   26.7172 C   0  0  0  0  0  0  0  0  0  0  0  0
    0.2221   -9.8326   17.4055 C   0  0  0  0  0  0  0  0  0  0  0  0
    4.3850   -9.0730   28.6745 C   0  0  0  0  0  0  0  0  0  0  0  0
  1  7  4  0
  1 22  4  0
  2 17  4  0
  2 20  4  0
  2 28  4  0
  3  6  1  0
  3 19  1  0
  4 19  1  0
  4 26  1  0
  5 17  4  0
  5 18  4  0
  6 20  1  0
  6 26  1  0
  7 24  4  0
  8 15  4  0
  8 24  4  0
  9 14  4  0
  9 21  4  0
 10 12  4  0
 10 27  4  0
 11 12  4  0
 11 23  4  0
 13 23  4  0
 13 27  4  0
 14 20  4  0
 15 22  4  0
 16 18  4  0
 16 25  2  0
 16 28  4  0
 21 28  4  0
 24 27  1  0
M  END
$$$$

 Created by Python create_sdf_string function

 28 31  0  0  0  0  0  0  0  0999 V2000
   -1.0054  -13.0622   19.1198 C   0  0  0  0  0  0  0  0  0  0  0  0
    3.1478   -8.5360   28.5161 C   0  0  0  0  0  0  0  0  0  0  0  0
    0.5798   -7.1906   27.9330 C   0  0  0  0  0  0  0  0  0  0  0  0
    0.3978   -5.1561   26.6955 C   0  0  0  0  0  0  0  0  0  0  0  0
    2.3063  -10.0533   30.0125 C   0  0  0  0  0  0  0  0  0  0  0  0
    1.8591   -6.8254   27.4685 N   0  0  0  0  0  0  0  0  0  0  0  0
   -0.2167  -12.1055   18.5568 C   0  0  0  0  0  0  0  0  0  0  0  0
   -2.0661  -10.6994   18.1916 C   0  0  0  0  0  0  0  0  0  0  0  0
    5.2703   -7.5691   27.1123 C   0  0  0  0  0  0  0  0  0  0  0  0
    1.6204   -9.9887   17.2935 C   0  0  0  0  0  0  0  0  0  0  0  0
    1.8931   -7.9265   16.2047 C   0  0  0  0  0  0  0  0  0  0  0  0
    2.4396   -9.0801   16.7132 C   0  0  0  0  0  0  0  0  0  0  0  0
   -0.2575   -8.6234   16.8582 C   0  0  0  0  0  0  0  0  0  0  0  0
    4.0614   -7.0367   27.0106 N   0  0  0  0  0  0  0  0  0  0  0  0
   -2.9133  -11.6279   18.7578 C   0  0  0  0  0  0  0  0  0  0  0  0
    4.5688  -10.1291   29.5758 C   0  0  0  0  0  0  0  0  0  0  0  0
    2.1008   -9.0410   29.1852 N   0  0  0  0  0  0  0  0  0  0  0  0
    3.4829  -10.5697   30.2091 N   0  0  0  0  0  0  0  0  0  0  0  0
   -0.3363   -6.1172   27.5628 C   0  0  0  0  0  0  0  0  0  0  0  0
    3.0331   -7.4400   27.6362 C   0  0  0  0  0  0  0  0  0  0  0  0
    5.4553   -8.5933   27.9644 C   0  0  0  0  0  0  0  0  0  0  0  0
   -2.3870  -12.8440   19.2512 C   0  0  0  0  0  0  0  0  0  0  0  0
    0.5331   -7.6964   16.2751 C   0  0  0  0  0  0  0  0  0  0  0  0
   -0.6740  -10.8737   18.0482 C   0  0  0  0  0  0  0  0  0  0  0  0
    5.6751  -10.5870   29.7637 O   0  0  0  0  0  0  0  0  0  0  0  0
    1.7612   -5.6483   26.7172 C   0  0  0  0  0  0  0  0  0  0  0  0
    0.2221   -9.8326   17.4055 C   0  0  0  0  0  0  0  0  0  0  0  0
    4.3850   -9.0730   28.6745 C   0  0  0  0  0  0  0  0  0  0  0  0
  1  7  4  0
  1 22  4  0
  2 17  4  0
  2 20  4  0
  2 28  4  0
  3  6  1  0
  3 19  1  0
  4 19  1  0
  4 26  1  0
  5 17  4  0
  5 18  4  0
  6 20  1  0
  6 26  1  0
  7 24  4  0
  8 15  4  0
  8 24  4  0
  9 14  4  0
  9 21  4  0
 10 12  4  0
 10 27  4  0
 11 12  4  0
 11 23  4  0
 13 23  4  0
 13 27  4  0
 14 20  4  0
 15 22  4  0
 16 18  4  0
 16 25  2  0
 16 28  4  0
 21 28  4  0
 24 27  1  0
M  END
$$$$

 Created by Python create_sdf_string function

 28 31  0  0  0  0  0  0  0  0999 V2000
   -1.0054  -13.0622   19.1198 C   0  0  0  0  0  0  0  0  0  0  0  0
    3.1478   -8.5360   28.5161 C   0  0  0  0  0  0  0  0  0  0  0  0
    0.5798   -7.1906   27.9330 C   0  0  0  0  0  0  0  0  0  0  0  0
    0.3978   -5.1561   26.6955 C   0  0  0  0  0  0  0  0  0  0  0  0
    2.3063  -10.0533   30.0125 C   0  0  0  0  0  0  0  0  0  0  0  0
    1.8591   -6.8254   27.4685 N   0  0  0  0  0  0  0  0  0  0  0  0
   -0.2167  -12.1055   18.5568 C   0  0  0  0  0  0  0  0  0  0  0  0
   -2.0661  -10.6994   18.1916 C   0  0  0  0  0  0  0  0  0  0  0  0
    5.2703   -7.5691   27.1123 C   0  0  0  0  0  0  0  0  0  0  0  0
    1.6204   -9.9887   17.2935 C   0  0  0  0  0  0  0  0  0  0  0  0
    1.8931   -7.9265   16.2047 C   0  0  0  0  0  0  0  0  0  0  0  0
    2.4396   -9.0801   16.7132 C   0  0  0  0  0  0  0  0  0  0  0  0
   -0.2575   -8.6234   16.8582 C   0  0  0  0  0  0  0  0  0  0  0  0
    4.0614   -7.0367   27.0106 N   0  0  0  0  0  0  0  0  0  0  0  0
   -2.9133  -11.6279   18.7578 C   0  0  0  0  0  0  0  0  0  0  0  0
    4.5688  -10.1291   29.5758 C   0  0  0  0  0  0  0  0  0  0  0  0
    2.1008   -9.0410   29.1852 N   0  0  0  0  0  0  0  0  0  0  0  0
    3.4829  -10.5697   30.2091 N   0  0  0  0  0  0  0  0  0  0  0  0
   -0.3363   -6.1172   27.5628 C   0  0  0  0  0  0  0  0  0  0  0  0
    3.0331   -7.4400   27.6362 C   0  0  0  0  0  0  0  0  0  0  0  0
    5.4553   -8.5933   27.9644 C   0  0  0  0  0  0  0  0  0  0  0  0
   -2.3870  -12.8440   19.2512 C   0  0  0  0  0  0  0  0  0  0  0  0
    0.5331   -7.6964   16.2751 C   0  0  0  0  0  0  0  0  0  0  0  0
   -0.6740  -10.8737   18.0482 C   0  0  0  0  0  0  0  0  0  0  0  0
    5.6751  -10.5870   29.7637 O   0  0  0  0  0  0  0  0  0  0  0  0
    1.7612   -5.6483   26.7172 C   0  0  0  0  0  0  0  0  0  0  0  0
    0.2221   -9.8326   17.4055 C   0  0  0  0  0  0  0  0  0  0  0  0
    4.3850   -9.0730   28.6745 C   0  0  0  0  0  0  0  0  0  0  0  0
  1  7  4  0
  1 22  4  0
  2 17  4  0
  2 20  4  0
  2 28  4  0
  3  6  1  0
  3 19  1  0
  4 19  1  0
  4 26  1  0
  5 17  4  0
  5 18  4  0
  6 20  1  0
  6 26  1  0
  7 24  4  0
  8 15  4  0
  8 24  4  0
  9 14  4  0
  9 21  4  0
 10 12  4  0
 10 27  4  0
 11 12  4  0
 11 23  4  0
 13 23  4  0
 13 27  4  0
 14 20  4  0
 15 22  4  0
 16 18  4  0
 16 25  2  0
 16 28  4  0
 21 28  4  0
 24 27  1  0
M  END
$$$$

 Created by Python create_sdf_string function

 28 31  0  0  0  0  0  0  0  0999 V2000
   -1.0054  -13.0622   19.1198 C   0  0  0  0  0  0  0  0  0  0  0  0
    3.1478   -8.5360   28.5161 C   0  0  0  0  0  0  0  0  0  0  0  0
    0.5798   -7.1906   27.9330 C   0  0  0  0  0  0  0  0  0  0  0  0
    0.3978   -5.1561   26.6955 C   0  0  0  0  0  0  0  0  0  0  0  0
    2.3063  -10.0533   30.0125 C   0  0  0  0  0  0  0  0  0  0  0  0
    1.8591   -6.8254   27.4685 N   0  0  0  0  0  0  0  0  0  0  0  0
   -0.2167  -12.1055   18.5568 C   0  0  0  0  0  0  0  0  0  0  0  0
   -2.0661  -10.6994   18.1916 C   0  0  0  0  0  0  0  0  0  0  0  0
    5.2703   -7.5691   27.1123 C   0  0  0  0  0  0  0  0  0  0  0  0
    1.6204   -9.9887   17.2935 C   0  0  0  0  0  0  0  0  0  0  0  0
    1.8931   -7.9265   16.2047 C   0  0  0  0  0  0  0  0  0  0  0  0
    2.4396   -9.0801   16.7132 C   0  0  0  0  0  0  0  0  0  0  0  0
   -0.2575   -8.6234   16.8582 C   0  0  0  0  0  0  0  0  0  0  0  0
    4.0614   -7.0367   27.0106 N   0  0  0  0  0  0  0  0  0  0  0  0
   -2.9133  -11.6279   18.7578 C   0  0  0  0  0  0  0  0  0  0  0  0
    4.5688  -10.1291   29.5758 C   0  0  0  0  0  0  0  0  0  0  0  0
    2.1008   -9.0410   29.1852 N   0  0  0  0  0  0  0  0  0  0  0  0
    3.4829  -10.5697   30.2091 N   0  0  0  0  0  0  0  0  0  0  0  0
   -0.3363   -6.1172   27.5628 C   0  0  0  0  0  0  0  0  0  0  0  0
    3.0331   -7.4400   27.6362 C   0  0  0  0  0  0  0  0  0  0  0  0
    5.4553   -8.5933   27.9644 C   0  0  0  0  0  0  0  0  0  0  0  0
   -2.3870  -12.8440   19.2512 C   0  0  0  0  0  0  0  0  0  0  0  0
    0.5331   -7.6964   16.2751 C   0  0  0  0  0  0  0  0  0  0  0  0
   -0.6740  -10.8737   18.0482 C   0  0  0  0  0  0  0  0  0  0  0  0
    5.6751  -10.5870   29.7637 O   0  0  0  0  0  0  0  0  0  0  0  0
    1.7612   -5.6483   26.7172 C   0  0  0  0  0  0  0  0  0  0  0  0
    0.2221   -9.8326   17.4055 C   0  0  0  0  0  0  0  0  0  0  0  0
    4.3850   -9.0730   28.6745 C   0  0  0  0  0  0  0  0  0  0  0  0
  1  7  4  0
  1 22  4  0
  2 17  4  0
  2 20  4  0
  2 28  4  0
  3  6  1  0
  3 19  1  0
  4 19  1  0
  4 26  1  0
  5 17  4  0
  5 18  4  0
  6 20  1  0
  6 26  1  0
  7 24  4  0
  8 15  4  0
  8 24  4  0
  9 14  4  0
  9 21  4  0
 10 12  4  0
 10 27  4  0
 11 12  4  0
 11 23  4  0
 13 23  4  0
 13 27  4  0
 14 20  4  0
 15 22  4  0
 16 18  4  0
 16 25  2  0
 16 28  4  0
 21 28  4  0
 24 27  1  0
M  END
$$$$

 Created by Python create_sdf_string function

 28 31  0  0  0  0  0  0  0  0999 V2000
   -1.0054  -13.0622   19.1198 C   0  0  0  0  0  0  0  0  0  0  0  0
    3.1478   -8.5360   28.5161 C   0  0  0  0  0  0  0  0  0  0  0  0
    0.5798   -7.1906   27.9330 C   0  0  0  0  0  0  0  0  0  0  0  0
    0.3978   -5.1561   26.6955 C   0  0  0  0  0  0  0  0  0  0  0  0
    2.3063  -10.0533   30.0125 C   0  0  0  0  0  0  0  0  0  0  0  0
    1.8591   -6.8254   27.4685 N   0  0  0  0  0  0  0  0  0  0  0  0
   -0.2167  -12.1055   18.5568 C   0  0  0  0  0  0  0  0  0  0  0  0
   -2.0661  -10.6994   18.1916 C   0  0  0  0  0  0  0  0  0  0  0  0
    5.2703   -7.5691   27.1123 C   0  0  0  0  0  0  0  0  0  0  0  0
    1.6204   -9.9887   17.2935 C   0  0  0  0  0  0  0  0  0  0  0  0
    1.8931   -7.9265   16.2047 C   0  0  0  0  0  0  0  0  0  0  0  0
    2.4396   -9.0801   16.7132 C   0  0  0  0  0  0  0  0  0  0  0  0
   -0.2575   -8.6234   16.8582 C   0  0  0  0  0  0  0  0  0  0  0  0
    4.0614   -7.0367   27.0106 N   0  0  0  0  0  0  0  0  0  0  0  0
   -2.9133  -11.6279   18.7578 C   0  0  0  0  0  0  0  0  0  0  0  0
    4.5688  -10.1291   29.5758 C   0  0  0  0  0  0  0  0  0  0  0  0
    2.1008   -9.0410   29.1852 N   0  0  0  0  0  0  0  0  0  0  0  0
    3.4829  -10.5697   30.2091 N   0  0  0  0  0  0  0  0  0  0  0  0
   -0.3363   -6.1172   27.5628 C   0  0  0  0  0  0  0  0  0  0  0  0
    3.0331   -7.4400   27.6362 C   0  0  0  0  0  0  0  0  0  0  0  0
    5.4553   -8.5933   27.9644 C   0  0  0  0  0  0  0  0  0  0  0  0
   -2.3870  -12.8440   19.2512 C   0  0  0  0  0  0  0  0  0  0  0  0
    0.5331   -7.6964   16.2751 C   0  0  0  0  0  0  0  0  0  0  0  0
   -0.6740  -10.8737   18.0482 C   0  0  0  0  0  0  0  0  0  0  0  0
    5.6751  -10.5870   29.7637 O   0  0  0  0  0  0  0  0  0  0  0  0
    1.7612   -5.6483   26.7172 C   0  0  0  0  0  0  0  0  0  0  0  0
    0.2221   -9.8326   17.4055 C   0  0  0  0  0  0  0  0  0  0  0  0
    4.3850   -9.0730   28.6745 C   0  0  0  0  0  0  0  0  0  0  0  0
  1  7  4  0
  1 22  4  0
  2 17  4  0
  2 20  4  0
  2 28  4  0
  3  6  1  0
  3 19  1  0
  4 19  1  0
  4 26  1  0
  5 17  4  0
  5 18  4  0
  6 20  1  0
  6 26  1  0
  7 24  4  0
  8 15  4  0
  8 24  4  0
  9 14  4  0
  9 21  4  0
 10 12  4  0
 10 27  4  0
 11 12  4  0
 11 23  4  0
 13 23  4  0
 13 27  4  0
 14 20  4  0
 15 22  4  0
 16 18  4  0
 16 25  2  0
 16 28  4  0
 21 28  4  0
 24 27  1  0
M  END
$$$$

 Created by Python create_sdf_string function

 28 31  0  0  0  0  0  0  0  0999 V2000
   -1.0054  -13.0622   19.1198 C   0  0  0  0  0  0  0  0  0  0  0  0
    3.1478   -8.5360   28.5161 C   0  0  0  0  0  0  0  0  0  0  0  0
    0.5798   -7.1906   27.9330 C   0  0  0  0  0  0  0  0  0  0  0  0
    0.3978   -5.1561   26.6955 C   0  0  0  0  0  0  0  0  0  0  0  0
    2.3063  -10.0533   30.0125 C   0  0  0  0  0  0  0  0  0  0  0  0
    1.8591   -6.8254   27.4685 N   0  0  0  0  0  0  0  0  0  0  0  0
   -0.2167  -12.1055   18.5568 C   0  0  0  0  0  0  0  0  0  0  0  0
   -2.0661  -10.6994   18.1916 C   0  0  0  0  0  0  0  0  0  0  0  0
    5.2703   -7.5691   27.1123 C   0  0  0  0  0  0  0  0  0  0  0  0
    1.6204   -9.9887   17.2935 C   0  0  0  0  0  0  0  0  0  0  0  0
    1.8931   -7.9265   16.2047 C   0  0  0  0  0  0  0  0  0  0  0  0
    2.4396   -9.0801   16.7132 C   0  0  0  0  0  0  0  0  0  0  0  0
   -0.2575   -8.6234   16.8582 C   0  0  0  0  0  0  0  0  0  0  0  0
    4.0614   -7.0367   27.0106 N   0  0  0  0  0  0  0  0  0  0  0  0
   -2.9133  -11.6279   18.7578 C   0  0  0  0  0  0  0  0  0  0  0  0
    4.5688  -10.1291   29.5758 C   0  0  0  0  0  0  0  0  0  0  0  0
    2.1008   -9.0410   29.1852 N   0  0  0  0  0  0  0  0  0  0  0  0
    3.4829  -10.5697   30.2091 N   0  0  0  0  0  0  0  0  0  0  0  0
   -0.3363   -6.1172   27.5628 C   0  0  0  0  0  0  0  0  0  0  0  0
    3.0331   -7.4400   27.6362 C   0  0  0  0  0  0  0  0  0  0  0  0
    5.4553   -8.5933   27.9644 C   0  0  0  0  0  0  0  0  0  0  0  0
   -2.3870  -12.8440   19.2512 C   0  0  0  0  0  0  0  0  0  0  0  0
    0.5331   -7.6964   16.2751 C   0  0  0  0  0  0  0  0  0  0  0  0
   -0.6740  -10.8737   18.0482 C   0  0  0  0  0  0  0  0  0  0  0  0
    5.6751  -10.5870   29.7637 O   0  0  0  0  0  0  0  0  0  0  0  0
    1.7612   -5.6483   26.7172 C   0  0  0  0  0  0  0  0  0  0  0  0
    0.2221   -9.8326   17.4055 C   0  0  0  0  0  0  0  0  0  0  0  0
    4.3850   -9.0730   28.6745 C   0  0  0  0  0  0  0  0  0  0  0  0
  1  7  4  0
  1 22  4  0
  2 17  4  0
  2 20  4  0
  2 28  4  0
  3  6  1  0
  3 19  1  0
  4 19  1  0
  4 26  1  0
  5 17  4  0
  5 18  4  0
  6 20  1  0
  6 26  1  0
  7 24  4  0
  8 15  4  0
  8 24  4  0
  9 14  4  0
  9 21  4  0
 10 12  4  0
 10 27  4  0
 11 12  4  0
 11 23  4  0
 13 23  4  0
 13 27  4  0
 14 20  4  0
 15 22  4  0
 16 18  4  0
 16 25  2  0
 16 28  4  0
 21 28  4  0
 24 27  1  0
M  END
$$$$

 Created by Python create_sdf_string function

 28 31  0  0  0  0  0  0  0  0999 V2000
   -1.0054  -13.0622   19.1198 C   0  0  0  0  0  0  0  0  0  0  0  0
    3.1478   -8.5360   28.5161 C   0  0  0  0  0  0  0  0  0  0  0  0
    0.5798   -7.1906   27.9330 C   0  0  0  0  0  0  0  0  0  0  0  0
    0.3978   -5.1561   26.6955 C   0  0  0  0  0  0  0  0  0  0  0  0
    2.3063  -10.0533   30.0125 C   0  0  0  0  0  0  0  0  0  0  0  0
    1.8591   -6.8254   27.4685 N   0  0  0  0  0  0  0  0  0  0  0  0
   -0.2167  -12.1055   18.5568 C   0  0  0  0  0  0  0  0  0  0  0  0
   -2.0661  -10.6994   18.1916 C   0  0  0  0  0  0  0  0  0  0  0  0
    5.2703   -7.5691   27.1123 C   0  0  0  0  0  0  0  0  0  0  0  0
    1.6204   -9.9887   17.2935 C   0  0  0  0  0  0  0  0  0  0  0  0
    1.8931   -7.9265   16.2047 C   0  0  0  0  0  0  0  0  0  0  0  0
    2.4396   -9.0801   16.7132 C   0  0  0  0  0  0  0  0  0  0  0  0
   -0.2575   -8.6234   16.8582 C   0  0  0  0  0  0  0  0  0  0  0  0
    4.0614   -7.0367   27.0106 N   0  0  0  0  0  0  0  0  0  0  0  0
   -2.9133  -11.6279   18.7578 C   0  0  0  0  0  0  0  0  0  0  0  0
    4.5688  -10.1291   29.5758 C   0  0  0  0  0  0  0  0  0  0  0  0
    2.1008   -9.0410   29.1852 N   0  0  0  0  0  0  0  0  0  0  0  0
    3.4829  -10.5697   30.2091 N   0  0  0  0  0  0  0  0  0  0  0  0
   -0.3363   -6.1172   27.5628 C   0  0  0  0  0  0  0  0  0  0  0  0
    3.0331   -7.4400   27.6362 C   0  0  0  0  0  0  0  0  0  0  0  0
    5.4553   -8.5933   27.9644 C   0  0  0  0  0  0  0  0  0  0  0  0
   -2.3870  -12.8440   19.2512 C   0  0  0  0  0  0  0  0  0  0  0  0
    0.5331   -7.6964   16.2751 C   0  0  0  0  0  0  0  0  0  0  0  0
   -0.6740  -10.8737   18.0482 C   0  0  0  0  0  0  0  0  0  0  0  0
    5.6751  -10.5870   29.7637 O   0  0  0  0  0  0  0  0  0  0  0  0
    1.7612   -5.6483   26.7172 C   0  0  0  0  0  0  0  0  0  0  0  0
    0.2221   -9.8326   17.4055 C   0  0  0  0  0  0  0  0  0  0  0  0
    4.3850   -9.0730   28.6745 C   0  0  0  0  0  0  0  0  0  0  0  0
  1  7  4  0
  1 22  4  0
  2 17  4  0
  2 20  4  0
  2 28  4  0
  3  6  1  0
  3 19  1  0
  4 19  1  0
  4 26  1  0
  5 17  4  0
  5 18  4  0
  6 20  1  0
  6 26  1  0
  7 24  4  0
  8 15  4  0
  8 24  4  0
  9 14  4  0
  9 21  4  0
 10 12  4  0
 10 27  4  0
 11 12  4  0
 11 23  4  0
 13 23  4  0
 13 27  4  0
 14 20  4  0
 15 22  4  0
 16 18  4  0
 16 25  2  0
 16 28  4  0
 21 28  4  0
 24 27  1  0
M  END
$$$$

 Created by Python create_sdf_string function

 28 31  0  0  0  0  0  0  0  0999 V2000
   -1.0054  -13.0622   19.1198 C   0  0  0  0  0  0  0  0  0  0  0  0
    3.1478   -8.5360   28.5161 C   0  0  0  0  0  0  0  0  0  0  0  0
    0.5798   -7.1906   27.9330 C   0  0  0  0  0  0  0  0  0  0  0  0
    0.3978   -5.1561   26.6955 C   0  0  0  0  0  0  0  0  0  0  0  0
    2.3063  -10.0533   30.0125 C   0  0  0  0  0  0  0  0  0  0  0  0
    1.8591   -6.8254   27.4685 N   0  0  0  0  0  0  0  0  0  0  0  0
   -0.2167  -12.1055   18.5568 C   0  0  0  0  0  0  0  0  0  0  0  0
   -2.0661  -10.6994   18.1916 C   0  0  0  0  0  0  0  0  0  0  0  0
    5.2703   -7.5691   27.1123 C   0  0  0  0  0  0  0  0  0  0  0  0
    1.6204   -9.9887   17.2935 C   0  0  0  0  0  0  0  0  0  0  0  0
    1.8931   -7.9265   16.2047 C   0  0  0  0  0  0  0  0  0  0  0  0
    2.4396   -9.0801   16.7132 C   0  0  0  0  0  0  0  0  0  0  0  0
   -0.2575   -8.6234   16.8582 C   0  0  0  0  0  0  0  0  0  0  0  0
    4.0614   -7.0367   27.0106 N   0  0  0  0  0  0  0  0  0  0  0  0
   -2.9133  -11.6279   18.7578 C   0  0  0  0  0  0  0  0  0  0  0  0
    4.5688  -10.1291   29.5758 C   0  0  0  0  0  0  0  0  0  0  0  0
    2.1008   -9.0410   29.1852 N   0  0  0  0  0  0  0  0  0  0  0  0
    3.4829  -10.5697   30.2091 N   0  0  0  0  0  0  0  0  0  0  0  0
   -0.3363   -6.1172   27.5628 C   0  0  0  0  0  0  0  0  0  0  0  0
    3.0331   -7.4400   27.6362 C   0  0  0  0  0  0  0  0  0  0  0  0
    5.4553   -8.5933   27.9644 C   0  0  0  0  0  0  0  0  0  0  0  0
   -2.3870  -12.8440   19.2512 C   0  0  0  0  0  0  0  0  0  0  0  0
    0.5331   -7.6964   16.2751 C   0  0  0  0  0  0  0  0  0  0  0  0
   -0.6740  -10.8737   18.0482 C   0  0  0  0  0  0  0  0  0  0  0  0
    5.6751  -10.5870   29.7637 O   0  0  0  0  0  0  0  0  0  0  0  0
    1.7612   -5.6483   26.7172 C   0  0  0  0  0  0  0  0  0  0  0  0
    0.2221   -9.8326   17.4055 C   0  0  0  0  0  0  0  0  0  0  0  0
    4.3850   -9.0730   28.6745 C   0  0  0  0  0  0  0  0  0  0  0  0
  1  7  4  0
  1 22  4  0
  2 17  4  0
  2 20  4  0
  2 28  4  0
  3  6  1  0
  3 19  1  0
  4 19  1  0
  4 26  1  0
  5 17  4  0
  5 18  4  0
  6 20  1  0
  6 26  1  0
  7 24  4  0
  8 15  4  0
  8 24  4  0
  9 14  4  0
  9 21  4  0
 10 12  4  0
 10 27  4  0
 11 12  4  0
 11 23  4  0
 13 23  4  0
 13 27  4  0
 14 20  4  0
 15 22  4  0
 16 18  4  0
 16 25  2  0
 16 28  4  0
 21 28  4  0
 24 27  1  0
M  END
$$$$

 Created by Python create_sdf_string function

 28 31  0  0  0  0  0  0  0  0999 V2000
   -1.0054  -13.0622   19.1198 C   0  0  0  0  0  0  0  0  0  0  0  0
    3.1478   -8.5360   28.5161 C   0  0  0  0  0  0  0  0  0  0  0  0
    0.5798   -7.1906   27.9330 C   0  0  0  0  0  0  0  0  0  0  0  0
    0.3978   -5.1561   26.6955 C   0  0  0  0  0  0  0  0  0  0  0  0
    2.3063  -10.0533   30.0125 C   0  0  0  0  0  0  0  0  0  0  0  0
    1.8591   -6.8254   27.4685 N   0  0  0  0  0  0  0  0  0  0  0  0
   -0.2167  -12.1055   18.5568 C   0  0  0  0  0  0  0  0  0  0  0  0
   -2.0661  -10.6994   18.1916 C   0  0  0  0  0  0  0  0  0  0  0  0
    5.2703   -7.5691   27.1123 C   0  0  0  0  0  0  0  0  0  0  0  0
    1.6204   -9.9887   17.2935 C   0  0  0  0  0  0  0  0  0  0  0  0
    1.8931   -7.9265   16.2047 C   0  0  0  0  0  0  0  0  0  0  0  0
    2.4396   -9.0801   16.7132 C   0  0  0  0  0  0  0  0  0  0  0  0
   -0.2575   -8.6234   16.8582 C   0  0  0  0  0  0  0  0  0  0  0  0
    4.0614   -7.0367   27.0106 N   0  0  0  0  0  0  0  0  0  0  0  0
   -2.9133  -11.6279   18.7578 C   0  0  0  0  0  0  0  0  0  0  0  0
    4.5688  -10.1291   29.5758 C   0  0  0  0  0  0  0  0  0  0  0  0
    2.1008   -9.0410   29.1852 N   0  0  0  0  0  0  0  0  0  0  0  0
    3.4829  -10.5697   30.2091 N   0  0  0  0  0  0  0  0  0  0  0  0
   -0.3363   -6.1172   27.5628 C   0  0  0  0  0  0  0  0  0  0  0  0
    3.0331   -7.4400   27.6362 C   0  0  0  0  0  0  0  0  0  0  0  0
    5.4553   -8.5933   27.9644 C   0  0  0  0  0  0  0  0  0  0  0  0
   -2.3870  -12.8440   19.2512 C   0  0  0  0  0  0  0  0  0  0  0  0
    0.5331   -7.6964   16.2751 C   0  0  0  0  0  0  0  0  0  0  0  0
   -0.6740  -10.8737   18.0482 C   0  0  0  0  0  0  0  0  0  0  0  0
    5.6751  -10.5870   29.7637 O   0  0  0  0  0  0  0  0  0  0  0  0
    1.7612   -5.6483   26.7172 C   0  0  0  0  0  0  0  0  0  0  0  0
    0.2221   -9.8326   17.4055 C   0  0  0  0  0  0  0  0  0  0  0  0
    4.3850   -9.0730   28.6745 C   0  0  0  0  0  0  0  0  0  0  0  0
  1  7  4  0
  1 22  4  0
  2 17  4  0
  2 20  4  0
  2 28  4  0
  3  6  1  0
  3 19  1  0
  4 19  1  0
  4 26  1  0
  5 17  4  0
  5 18  4  0
  6 20  1  0
  6 26  1  0
  7 24  4  0
  8 15  4  0
  8 24  4  0
  9 14  4  0
  9 21  4  0
 10 12  4  0
 10 27  4  0
 11 12  4  0
 11 23  4  0
 13 23  4  0
 13 27  4  0
 14 20  4  0
 15 22  4  0
 16 18  4  0
 16 25  2  0
 16 28  4  0
 21 28  4  0
 24 27  1  0
M  END
$$$$

 Created by Python create_sdf_string function

 28 31  0  0  0  0  0  0  0  0999 V2000
   -1.0054  -13.0622   19.1198 C   0  0  0  0  0  0  0  0  0  0  0  0
    3.1478   -8.5360   28.5161 C   0  0  0  0  0  0  0  0  0  0  0  0
    0.5798   -7.1906   27.9330 C   0  0  0  0  0  0  0  0  0  0  0  0
    0.3978   -5.1561   26.6955 C   0  0  0  0  0  0  0  0  0  0  0  0
    2.3063  -10.0533   30.0125 C   0  0  0  0  0  0  0  0  0  0  0  0
    1.8591   -6.8254   27.4685 N   0  0  0  0  0  0  0  0  0  0  0  0
   -0.2167  -12.1055   18.5568 C   0  0  0  0  0  0  0  0  0  0  0  0
   -2.0661  -10.6994   18.1916 C   0  0  0  0  0  0  0  0  0  0  0  0
    5.2703   -7.5691   27.1123 C   0  0  0  0  0  0  0  0  0  0  0  0
    1.6204   -9.9887   17.2935 C   0  0  0  0  0  0  0  0  0  0  0  0
    1.8931   -7.9265   16.2047 C   0  0  0  0  0  0  0  0  0  0  0  0
    2.4396   -9.0801   16.7132 C   0  0  0  0  0  0  0  0  0  0  0  0
   -0.2575   -8.6234   16.8582 C   0  0  0  0  0  0  0  0  0  0  0  0
    4.0614   -7.0367   27.0106 N   0  0  0  0  0  0  0  0  0  0  0  0
   -2.9133  -11.6279   18.7578 C   0  0  0  0  0  0  0  0  0  0  0  0
    4.5688  -10.1291   29.5758 C   0  0  0  0  0  0  0  0  0  0  0  0
    2.1008   -9.0410   29.1852 N   0  0  0  0  0  0  0  0  0  0  0  0
    3.4829  -10.5697   30.2091 N   0  0  0  0  0  0  0  0  0  0  0  0
   -0.3363   -6.1172   27.5628 C   0  0  0  0  0  0  0  0  0  0  0  0
    3.0331   -7.4400   27.6362 C   0  0  0  0  0  0  0  0  0  0  0  0
    5.4553   -8.5933   27.9644 C   0  0  0  0  0  0  0  0  0  0  0  0
   -2.3870  -12.8440   19.2512 C   0  0  0  0  0  0  0  0  0  0  0  0
    0.5331   -7.6964   16.2751 C   0  0  0  0  0  0  0  0  0  0  0  0
   -0.6740  -10.8737   18.0482 C   0  0  0  0  0  0  0  0  0  0  0  0
    5.6751  -10.5870   29.7637 O   0  0  0  0  0  0  0  0  0  0  0  0
    1.7612   -5.6483   26.7172 C   0  0  0  0  0  0  0  0  0  0  0  0
    0.2221   -9.8326   17.4055 C   0  0  0  0  0  0  0  0  0  0  0  0
    4.3850   -9.0730   28.6745 C   0  0  0  0  0  0  0  0  0  0  0  0
  1  7  4  0
  1 22  4  0
  2 17  4  0
  2 20  4  0
  2 28  4  0
  3  6  1  0
  3 19  1  0
  4 19  1  0
  4 26  1  0
  5 17  4  0
  5 18  4  0
  6 20  1  0
  6 26  1  0
  7 24  4  0
  8 15  4  0
  8 24  4  0
  9 14  4  0
  9 21  4  0
 10 12  4  0
 10 27  4  0
 11 12  4  0
 11 23  4  0
 13 23  4  0
 13 27  4  0
 14 20  4  0
 15 22  4  0
 16 18  4  0
 16 25  2  0
 16 28  4  0
 21 28  4  0
 24 27  1  0
M  END
$$$$

 Created by Python create_sdf_string function

 28 31  0  0  0  0  0  0  0  0999 V2000
   -1.0054  -13.0622   19.1198 C   0  0  0  0  0  0  0  0  0  0  0  0
    3.1478   -8.5360   28.5161 C   0  0  0  0  0  0  0  0  0  0  0  0
    0.5798   -7.1906   27.9330 C   0  0  0  0  0  0  0  0  0  0  0  0
    0.3978   -5.1561   26.6955 C   0  0  0  0  0  0  0  0  0  0  0  0
    2.3063  -10.0533   30.0125 C   0  0  0  0  0  0  0  0  0  0  0  0
    1.8591   -6.8254   27.4685 N   0  0  0  0  0  0  0  0  0  0  0  0
   -0.2167  -12.1055   18.5568 C   0  0  0  0  0  0  0  0  0  0  0  0
   -2.0661  -10.6994   18.1916 C   0  0  0  0  0  0  0  0  0  0  0  0
    5.2703   -7.5691   27.1123 C   0  0  0  0  0  0  0  0  0  0  0  0
    1.6204   -9.9887   17.2935 C   0  0  0  0  0  0  0  0  0  0  0  0
    1.8931   -7.9265   16.2047 C   0  0  0  0  0  0  0  0  0  0  0  0
    2.4396   -9.0801   16.7132 C   0  0  0  0  0  0  0  0  0  0  0  0
   -0.2575   -8.6234   16.8582 C   0  0  0  0  0  0  0  0  0  0  0  0
    4.0614   -7.0367   27.0106 N   0  0  0  0  0  0  0  0  0  0  0  0
   -2.9133  -11.6279   18.7578 C   0  0  0  0  0  0  0  0  0  0  0  0
    4.5688  -10.1291   29.5758 C   0  0  0  0  0  0  0  0  0  0  0  0
    2.1008   -9.0410   29.1852 N   0  0  0  0  0  0  0  0  0  0  0  0
    3.4829  -10.5697   30.2091 N   0  0  0  0  0  0  0  0  0  0  0  0
   -0.3363   -6.1172   27.5628 C   0  0  0  0  0  0  0  0  0  0  0  0
    3.0331   -7.4400   27.6362 C   0  0  0  0  0  0  0  0  0  0  0  0
    5.4553   -8.5933   27.9644 C   0  0  0  0  0  0  0  0  0  0  0  0
   -2.3870  -12.8440   19.2512 C   0  0  0  0  0  0  0  0  0  0  0  0
    0.5331   -7.6964   16.2751 C   0  0  0  0  0  0  0  0  0  0  0  0
   -0.6740  -10.8737   18.0482 C   0  0  0  0  0  0  0  0  0  0  0  0
    5.6751  -10.5870   29.7637 O   0  0  0  0  0  0  0  0  0  0  0  0
    1.7612   -5.6483   26.7172 C   0  0  0  0  0  0  0  0  0  0  0  0
    0.2221   -9.8326   17.4055 C   0  0  0  0  0  0  0  0  0  0  0  0
    4.3850   -9.0730   28.6745 C   0  0  0  0  0  0  0  0  0  0  0  0
  1  7  4  0
  1 22  4  0
  2 17  4  0
  2 20  4  0
  2 28  4  0
  3  6  1  0
  3 19  1  0
  4 19  1  0
  4 26  1  0
  5 17  4  0
  5 18  4  0
  6 20  1  0
  6 26  1  0
  7 24  4  0
  8 15  4  0
  8 24  4  0
  9 14  4  0
  9 21  4  0
 10 12  4  0
 10 27  4  0
 11 12  4  0
 11 23  4  0
 13 23  4  0
 13 27  4  0
 14 20  4  0
 15 22  4  0
 16 18  4  0
 16 25  2  0
 16 28  4  0
 21 28  4  0
 24 27  1  0
M  END
$$$$

 Created by Python create_sdf_string function

 28 31  0  0  0  0  0  0  0  0999 V2000
   -1.0054  -13.0622   19.1198 C   0  0  0  0  0  0  0  0  0  0  0  0
    3.1478   -8.5360   28.5161 C   0  0  0  0  0  0  0  0  0  0  0  0
    0.5798   -7.1906   27.9330 C   0  0  0  0  0  0  0  0  0  0  0  0
    0.3978   -5.1561   26.6955 C   0  0  0  0  0  0  0  0  0  0  0  0
    2.3063  -10.0533   30.0125 C   0  0  0  0  0  0  0  0  0  0  0  0
    1.8591   -6.8254   27.4685 N   0  0  0  0  0  0  0  0  0  0  0  0
   -0.2167  -12.1055   18.5568 C   0  0  0  0  0  0  0  0  0  0  0  0
   -2.0661  -10.6994   18.1916 C   0  0  0  0  0  0  0  0  0  0  0  0
    5.2703   -7.5691   27.1123 C   0  0  0  0  0  0  0  0  0  0  0  0
    1.6204   -9.9887   17.2935 C   0  0  0  0  0  0  0  0  0  0  0  0
    1.8931   -7.9265   16.2047 C   0  0  0  0  0  0  0  0  0  0  0  0
    2.4396   -9.0801   16.7132 C   0  0  0  0  0  0  0  0  0  0  0  0
   -0.2575   -8.6234   16.8582 C   0  0  0  0  0  0  0  0  0  0  0  0
    4.0614   -7.0367   27.0106 N   0  0  0  0  0  0  0  0  0  0  0  0
   -2.9133  -11.6279   18.7578 C   0  0  0  0  0  0  0  0  0  0  0  0
    4.5688  -10.1291   29.5758 C   0  0  0  0  0  0  0  0  0  0  0  0
    2.1008   -9.0410   29.1852 N   0  0  0  0  0  0  0  0  0  0  0  0
    3.4829  -10.5697   30.2091 N   0  0  0  0  0  0  0  0  0  0  0  0
   -0.3363   -6.1172   27.5628 C   0  0  0  0  0  0  0  0  0  0  0  0
    3.0331   -7.4400   27.6362 C   0  0  0  0  0  0  0  0  0  0  0  0
    5.4553   -8.5933   27.9644 C   0  0  0  0  0  0  0  0  0  0  0  0
   -2.3870  -12.8440   19.2512 C   0  0  0  0  0  0  0  0  0  0  0  0
    0.5331   -7.6964   16.2751 C   0  0  0  0  0  0  0  0  0  0  0  0
   -0.6740  -10.8737   18.0482 C   0  0  0  0  0  0  0  0  0  0  0  0
    5.6751  -10.5870   29.7637 O   0  0  0  0  0  0  0  0  0  0  0  0
    1.7612   -5.6483   26.7172 C   0  0  0  0  0  0  0  0  0  0  0  0
    0.2221   -9.8326   17.4055 C   0  0  0  0  0  0  0  0  0  0  0  0
    4.3850   -9.0730   28.6745 C   0  0  0  0  0  0  0  0  0  0  0  0
  1  7  4  0
  1 22  4  0
  2 17  4  0
  2 20  4  0
  2 28  4  0
  3  6  1  0
  3 19  1  0
  4 19  1  0
  4 26  1  0
  5 17  4  0
  5 18  4  0
  6 20  1  0
  6 26  1  0
  7 24  4  0
  8 15  4  0
  8 24  4  0
  9 14  4  0
  9 21  4  0
 10 12  4  0
 10 27  4  0
 11 12  4  0
 11 23  4  0
 13 23  4  0
 13 27  4  0
 14 20  4  0
 15 22  4  0
 16 18  4  0
 16 25  2  0
 16 28  4  0
 21 28  4  0
 24 27  1  0
M  END
$$$$

 Created by Python create_sdf_string function

 28 31  0  0  0  0  0  0  0  0999 V2000
   -1.0054  -13.0622   19.1198 C   0  0  0  0  0  0  0  0  0  0  0  0
    3.1478   -8.5360   28.5161 C   0  0  0  0  0  0  0  0  0  0  0  0
    0.5798   -7.1906   27.9330 C   0  0  0  0  0  0  0  0  0  0  0  0
    0.3978   -5.1561   26.6955 C   0  0  0  0  0  0  0  0  0  0  0  0
    2.3063  -10.0533   30.0125 C   0  0  0  0  0  0  0  0  0  0  0  0
    1.8591   -6.8254   27.4685 N   0  0  0  0  0  0  0  0  0  0  0  0
   -0.2167  -12.1055   18.5568 C   0  0  0  0  0  0  0  0  0  0  0  0
   -2.0661  -10.6994   18.1916 C   0  0  0  0  0  0  0  0  0  0  0  0
    5.2703   -7.5691   27.1123 C   0  0  0  0  0  0  0  0  0  0  0  0
    1.6204   -9.9887   17.2935 C   0  0  0  0  0  0  0  0  0  0  0  0
    1.8931   -7.9265   16.2047 C   0  0  0  0  0  0  0  0  0  0  0  0
    2.4396   -9.0801   16.7132 C   0  0  0  0  0  0  0  0  0  0  0  0
   -0.2575   -8.6234   16.8582 C   0  0  0  0  0  0  0  0  0  0  0  0
    4.0614   -7.0367   27.0106 N   0  0  0  0  0  0  0  0  0  0  0  0
   -2.9133  -11.6279   18.7578 C   0  0  0  0  0  0  0  0  0  0  0  0
    4.5688  -10.1291   29.5758 C   0  0  0  0  0  0  0  0  0  0  0  0
    2.1008   -9.0410   29.1852 N   0  0  0  0  0  0  0  0  0  0  0  0
    3.4829  -10.5697   30.2091 N   0  0  0  0  0  0  0  0  0  0  0  0
   -0.3363   -6.1172   27.5628 C   0  0  0  0  0  0  0  0  0  0  0  0
    3.0331   -7.4400   27.6362 C   0  0  0  0  0  0  0  0  0  0  0  0
    5.4553   -8.5933   27.9644 C   0  0  0  0  0  0  0  0  0  0  0  0
   -2.3870  -12.8440   19.2512 C   0  0  0  0  0  0  0  0  0  0  0  0
    0.5331   -7.6964   16.2751 C   0  0  0  0  0  0  0  0  0  0  0  0
   -0.6740  -10.8737   18.0482 C   0  0  0  0  0  0  0  0  0  0  0  0
    5.6751  -10.5870   29.7637 O   0  0  0  0  0  0  0  0  0  0  0  0
    1.7612   -5.6483   26.7172 C   0  0  0  0  0  0  0  0  0  0  0  0
    0.2221   -9.8326   17.4055 C   0  0  0  0  0  0  0  0  0  0  0  0
    4.3850   -9.0730   28.6745 C   0  0  0  0  0  0  0  0  0  0  0  0
  1  7  4  0
  1 22  4  0
  2 17  4  0
  2 20  4  0
  2 28  4  0
  3  6  1  0
  3 19  1  0
  4 19  1  0
  4 26  1  0
  5 17  4  0
  5 18  4  0
  6 20  1  0
  6 26  1  0
  7 24  4  0
  8 15  4  0
  8 24  4  0
  9 14  4  0
  9 21  4  0
 10 12  4  0
 10 27  4  0
 11 12  4  0
 11 23  4  0
 13 23  4  0
 13 27  4  0
 14 20  4  0
 15 22  4  0
 16 18  4  0
 16 25  2  0
 16 28  4  0
 21 28  4  0
 24 27  1  0
M  END
$$$$

 Created by Python create_sdf_string function

 28 31  0  0  0  0  0  0  0  0999 V2000
   -1.0054  -13.0622   19.1198 C   0  0  0  0  0  0  0  0  0  0  0  0
    3.1478   -8.5360   28.5161 C   0  0  0  0  0  0  0  0  0  0  0  0
    0.5798   -7.1906   27.9330 C   0  0  0  0  0  0  0  0  0  0  0  0
    0.3978   -5.1561   26.6955 C   0  0  0  0  0  0  0  0  0  0  0  0
    2.3063  -10.0533   30.0125 C   0  0  0  0  0  0  0  0  0  0  0  0
    1.8591   -6.8254   27.4685 N   0  0  0  0  0  0  0  0  0  0  0  0
   -0.2167  -12.1055   18.5568 C   0  0  0  0  0  0  0  0  0  0  0  0
   -2.0661  -10.6994   18.1916 C   0  0  0  0  0  0  0  0  0  0  0  0
    5.2703   -7.5691   27.1123 C   0  0  0  0  0  0  0  0  0  0  0  0
    1.6204   -9.9887   17.2935 C   0  0  0  0  0  0  0  0  0  0  0  0
    1.8931   -7.9265   16.2047 C   0  0  0  0  0  0  0  0  0  0  0  0
    2.4396   -9.0801   16.7132 C   0  0  0  0  0  0  0  0  0  0  0  0
   -0.2575   -8.6234   16.8582 C   0  0  0  0  0  0  0  0  0  0  0  0
    4.0614   -7.0367   27.0106 N   0  0  0  0  0  0  0  0  0  0  0  0
   -2.9133  -11.6279   18.7578 C   0  0  0  0  0  0  0  0  0  0  0  0
    4.5688  -10.1291   29.5758 C   0  0  0  0  0  0  0  0  0  0  0  0
    2.1008   -9.0410   29.1852 N   0  0  0  0  0  0  0  0  0  0  0  0
    3.4829  -10.5697   30.2091 N   0  0  0  0  0  0  0  0  0  0  0  0
   -0.3363   -6.1172   27.5628 C   0  0  0  0  0  0  0  0  0  0  0  0
    3.0331   -7.4400   27.6362 C   0  0  0  0  0  0  0  0  0  0  0  0
    5.4553   -8.5933   27.9644 C   0  0  0  0  0  0  0  0  0  0  0  0
   -2.3870  -12.8440   19.2512 C   0  0  0  0  0  0  0  0  0  0  0  0
    0.5331   -7.6964   16.2751 C   0  0  0  0  0  0  0  0  0  0  0  0
   -0.6740  -10.8737   18.0482 C   0  0  0  0  0  0  0  0  0  0  0  0
    5.6751  -10.5870   29.7637 O   0  0  0  0  0  0  0  0  0  0  0  0
    1.7612   -5.6483   26.7172 C   0  0  0  0  0  0  0  0  0  0  0  0
    0.2221   -9.8326   17.4055 C   0  0  0  0  0  0  0  0  0  0  0  0
    4.3850   -9.0730   28.6745 C   0  0  0  0  0  0  0  0  0  0  0  0
  1  7  4  0
  1 22  4  0
  2 17  4  0
  2 20  4  0
  2 28  4  0
  3  6  1  0
  3 19  1  0
  4 19  1  0
  4 26  1  0
  5 17  4  0
  5 18  4  0
  6 20  1  0
  6 26  1  0
  7 24  4  0
  8 15  4  0
  8 24  4  0
  9 14  4  0
  9 21  4  0
 10 12  4  0
 10 27  4  0
 11 12  4  0
 11 23  4  0
 13 23  4  0
 13 27  4  0
 14 20  4  0
 15 22  4  0
 16 18  4  0
 16 25  2  0
 16 28  4  0
 21 28  4  0
 24 27  1  0
M  END
$$$$

 Created by Python create_sdf_string function

 28 31  0  0  0  0  0  0  0  0999 V2000
   -1.0054  -13.0622   19.1198 C   0  0  0  0  0  0  0  0  0  0  0  0
    3.1478   -8.5360   28.5161 C   0  0  0  0  0  0  0  0  0  0  0  0
    0.5798   -7.1906   27.9330 C   0  0  0  0  0  0  0  0  0  0  0  0
    0.3978   -5.1561   26.6955 C   0  0  0  0  0  0  0  0  0  0  0  0
    2.3063  -10.0533   30.0125 C   0  0  0  0  0  0  0  0  0  0  0  0
    1.8591   -6.8254   27.4685 N   0  0  0  0  0  0  0  0  0  0  0  0
   -0.2167  -12.1055   18.5568 C   0  0  0  0  0  0  0  0  0  0  0  0
   -2.0661  -10.6994   18.1916 C   0  0  0  0  0  0  0  0  0  0  0  0
    5.2703   -7.5691   27.1123 C   0  0  0  0  0  0  0  0  0  0  0  0
    1.6204   -9.9887   17.2935 C   0  0  0  0  0  0  0  0  0  0  0  0
    1.8931   -7.9265   16.2047 C   0  0  0  0  0  0  0  0  0  0  0  0
    2.4396   -9.0801   16.7132 C   0  0  0  0  0  0  0  0  0  0  0  0
   -0.2575   -8.6234   16.8582 C   0  0  0  0  0  0  0  0  0  0  0  0
    4.0614   -7.0367   27.0106 N   0  0  0  0  0  0  0  0  0  0  0  0
   -2.9133  -11.6279   18.7578 C   0  0  0  0  0  0  0  0  0  0  0  0
    4.5688  -10.1291   29.5758 C   0  0  0  0  0  0  0  0  0  0  0  0
    2.1008   -9.0410   29.1852 N   0  0  0  0  0  0  0  0  0  0  0  0
    3.4829  -10.5697   30.2091 N   0  0  0  0  0  0  0  0  0  0  0  0
   -0.3363   -6.1172   27.5628 C   0  0  0  0  0  0  0  0  0  0  0  0
    3.0331   -7.4400   27.6362 C   0  0  0  0  0  0  0  0  0  0  0  0
    5.4553   -8.5933   27.9644 C   0  0  0  0  0  0  0  0  0  0  0  0
   -2.3870  -12.8440   19.2512 C   0  0  0  0  0  0  0  0  0  0  0  0
    0.5331   -7.6964   16.2751 C   0  0  0  0  0  0  0  0  0  0  0  0
   -0.6740  -10.8737   18.0482 C   0  0  0  0  0  0  0  0  0  0  0  0
    5.6751  -10.5870   29.7637 O   0  0  0  0  0  0  0  0  0  0  0  0
    1.7612   -5.6483   26.7172 C   0  0  0  0  0  0  0  0  0  0  0  0
    0.2221   -9.8326   17.4055 C   0  0  0  0  0  0  0  0  0  0  0  0
    4.3850   -9.0730   28.6745 C   0  0  0  0  0  0  0  0  0  0  0  0
  1  7  4  0
  1 22  4  0
  2 17  4  0
  2 20  4  0
  2 28  4  0
  3  6  1  0
  3 19  1  0
  4 19  1  0
  4 26  1  0
  5 17  4  0
  5 18  4  0
  6 20  1  0
  6 26  1  0
  7 24  4  0
  8 15  4  0
  8 24  4  0
  9 14  4  0
  9 21  4  0
 10 12  4  0
 10 27  4  0
 11 12  4  0
 11 23  4  0
 13 23  4  0
 13 27  4  0
 14 20  4  0
 15 22  4  0
 16 18  4  0
 16 25  2  0
 16 28  4  0
 21 28  4  0
 24 27  1  0
M  END
$$$$

 Created by Python create_sdf_string function

 28 31  0  0  0  0  0  0  0  0999 V2000
   -1.0054  -13.0622   19.1198 C   0  0  0  0  0  0  0  0  0  0  0  0
    3.1478   -8.5360   28.5161 C   0  0  0  0  0  0  0  0  0  0  0  0
    0.5798   -7.1906   27.9330 C   0  0  0  0  0  0  0  0  0  0  0  0
    0.3978   -5.1561   26.6955 C   0  0  0  0  0  0  0  0  0  0  0  0
    2.3063  -10.0533   30.0125 C   0  0  0  0  0  0  0  0  0  0  0  0
    1.8591   -6.8254   27.4685 N   0  0  0  0  0  0  0  0  0  0  0  0
   -0.2167  -12.1055   18.5568 C   0  0  0  0  0  0  0  0  0  0  0  0
   -2.0661  -10.6994   18.1916 C   0  0  0  0  0  0  0  0  0  0  0  0
    5.2703   -7.5691   27.1123 C   0  0  0  0  0  0  0  0  0  0  0  0
    1.6204   -9.9887   17.2935 C   0  0  0  0  0  0  0  0  0  0  0  0
    1.8931   -7.9265   16.2047 C   0  0  0  0  0  0  0  0  0  0  0  0
    2.4396   -9.0801   16.7132 C   0  0  0  0  0  0  0  0  0  0  0  0
   -0.2575   -8.6234   16.8582 C   0  0  0  0  0  0  0  0  0  0  0  0
    4.0614   -7.0367   27.0106 N   0  0  0  0  0  0  0  0  0  0  0  0
   -2.9133  -11.6279   18.7578 C   0  0  0  0  0  0  0  0  0  0  0  0
    4.5688  -10.1291   29.5758 C   0  0  0  0  0  0  0  0  0  0  0  0
    2.1008   -9.0410   29.1852 N   0  0  0  0  0  0  0  0  0  0  0  0
    3.4829  -10.5697   30.2091 N   0  0  0  0  0  0  0  0  0  0  0  0
   -0.3363   -6.1172   27.5628 C   0  0  0  0  0  0  0  0  0  0  0  0
    3.0331   -7.4400   27.6362 C   0  0  0  0  0  0  0  0  0  0  0  0
    5.4553   -8.5933   27.9644 C   0  0  0  0  0  0  0  0  0  0  0  0
   -2.3870  -12.8440   19.2512 C   0  0  0  0  0  0  0  0  0  0  0  0
    0.5331   -7.6964   16.2751 C   0  0  0  0  0  0  0  0  0  0  0  0
   -0.6740  -10.8737   18.0482 C   0  0  0  0  0  0  0  0  0  0  0  0
    5.6751  -10.5870   29.7637 O   0  0  0  0  0  0  0  0  0  0  0  0
    1.7612   -5.6483   26.7172 C   0  0  0  0  0  0  0  0  0  0  0  0
    0.2221   -9.8326   17.4055 C   0  0  0  0  0  0  0  0  0  0  0  0
    4.3850   -9.0730   28.6745 C   0  0  0  0  0  0  0  0  0  0  0  0
  1  7  4  0
  1 22  4  0
  2 17  4  0
  2 20  4  0
  2 28  4  0
  3  6  1  0
  3 19  1  0
  4 19  1  0
  4 26  1  0
  5 17  4  0
  5 18  4  0
  6 20  1  0
  6 26  1  0
  7 24  4  0
  8 15  4  0
  8 24  4  0
  9 14  4  0
  9 21  4  0
 10 12  4  0
 10 27  4  0
 11 12  4  0
 11 23  4  0
 13 23  4  0
 13 27  4  0
 14 20  4  0
 15 22  4  0
 16 18  4  0
 16 25  2  0
 16 28  4  0
 21 28  4  0
 24 27  1  0
M  END
$$$$

 Created by Python create_sdf_string function

 28 31  0  0  0  0  0  0  0  0999 V2000
   -1.0054  -13.0622   19.1198 C   0  0  0  0  0  0  0  0  0  0  0  0
    3.1478   -8.5360   28.5161 C   0  0  0  0  0  0  0  0  0  0  0  0
    0.5798   -7.1906   27.9330 C   0  0  0  0  0  0  0  0  0  0  0  0
    0.3978   -5.1561   26.6955 C   0  0  0  0  0  0  0  0  0  0  0  0
    2.3063  -10.0533   30.0125 C   0  0  0  0  0  0  0  0  0  0  0  0
    1.8591   -6.8254   27.4685 N   0  0  0  0  0  0  0  0  0  0  0  0
   -0.2167  -12.1055   18.5568 C   0  0  0  0  0  0  0  0  0  0  0  0
   -2.0661  -10.6994   18.1916 C   0  0  0  0  0  0  0  0  0  0  0  0
    5.2703   -7.5691   27.1123 C   0  0  0  0  0  0  0  0  0  0  0  0
    1.6204   -9.9887   17.2935 C   0  0  0  0  0  0  0  0  0  0  0  0
    1.8931   -7.9265   16.2047 C   0  0  0  0  0  0  0  0  0  0  0  0
    2.4396   -9.0801   16.7132 C   0  0  0  0  0  0  0  0  0  0  0  0
   -0.2575   -8.6234   16.8582 C   0  0  0  0  0  0  0  0  0  0  0  0
    4.0614   -7.0367   27.0106 N   0  0  0  0  0  0  0  0  0  0  0  0
   -2.9133  -11.6279   18.7578 C   0  0  0  0  0  0  0  0  0  0  0  0
    4.5688  -10.1291   29.5758 C   0  0  0  0  0  0  0  0  0  0  0  0
    2.1008   -9.0410   29.1852 N   0  0  0  0  0  0  0  0  0  0  0  0
    3.4829  -10.5697   30.2091 N   0  0  0  0  0  0  0  0  0  0  0  0
   -0.3363   -6.1172   27.5628 C   0  0  0  0  0  0  0  0  0  0  0  0
    3.0331   -7.4400   27.6362 C   0  0  0  0  0  0  0  0  0  0  0  0
    5.4553   -8.5933   27.9644 C   0  0  0  0  0  0  0  0  0  0  0  0
   -2.3870  -12.8440   19.2512 C   0  0  0  0  0  0  0  0  0  0  0  0
    0.5331   -7.6964   16.2751 C   0  0  0  0  0  0  0  0  0  0  0  0
   -0.6740  -10.8737   18.0482 C   0  0  0  0  0  0  0  0  0  0  0  0
    5.6751  -10.5870   29.7637 O   0  0  0  0  0  0  0  0  0  0  0  0
    1.7612   -5.6483   26.7172 C   0  0  0  0  0  0  0  0  0  0  0  0
    0.2221   -9.8326   17.4055 C   0  0  0  0  0  0  0  0  0  0  0  0
    4.3850   -9.0730   28.6745 C   0  0  0  0  0  0  0  0  0  0  0  0
  1  7  4  0
  1 22  4  0
  2 17  4  0
  2 20  4  0
  2 28  4  0
  3  6  1  0
  3 19  1  0
  4 19  1  0
  4 26  1  0
  5 17  4  0
  5 18  4  0
  6 20  1  0
  6 26  1  0
  7 24  4  0
  8 15  4  0
  8 24  4  0
  9 14  4  0
  9 21  4  0
 10 12  4  0
 10 27  4  0
 11 12  4  0
 11 23  4  0
 13 23  4  0
 13 27  4  0
 14 20  4  0
 15 22  4  0
 16 18  4  0
 16 25  2  0
 16 28  4  0
 21 28  4  0
 24 27  1  0
M  END
$$$$

 Created by Python create_sdf_string function

 28 31  0  0  0  0  0  0  0  0999 V2000
   -1.0054  -13.0622   19.1198 C   0  0  0  0  0  0  0  0  0  0  0  0
    3.1478   -8.5360   28.5161 C   0  0  0  0  0  0  0  0  0  0  0  0
    0.5798   -7.1906   27.9330 C   0  0  0  0  0  0  0  0  0  0  0  0
    0.3978   -5.1561   26.6955 C   0  0  0  0  0  0  0  0  0  0  0  0
    2.3063  -10.0533   30.0125 C   0  0  0  0  0  0  0  0  0  0  0  0
    1.8591   -6.8254   27.4685 N   0  0  0  0  0  0  0  0  0  0  0  0
   -0.2167  -12.1055   18.5568 C   0  0  0  0  0  0  0  0  0  0  0  0
   -2.0661  -10.6994   18.1916 C   0  0  0  0  0  0  0  0  0  0  0  0
    5.2703   -7.5691   27.1123 C   0  0  0  0  0  0  0  0  0  0  0  0
    1.6204   -9.9887   17.2935 C   0  0  0  0  0  0  0  0  0  0  0  0
    1.8931   -7.9265   16.2047 C   0  0  0  0  0  0  0  0  0  0  0  0
    2.4396   -9.0801   16.7132 C   0  0  0  0  0  0  0  0  0  0  0  0
   -0.2575   -8.6234   16.8582 C   0  0  0  0  0  0  0  0  0  0  0  0
    4.0614   -7.0367   27.0106 N   0  0  0  0  0  0  0  0  0  0  0  0
   -2.9133  -11.6279   18.7578 C   0  0  0  0  0  0  0  0  0  0  0  0
    4.5688  -10.1291   29.5758 C   0  0  0  0  0  0  0  0  0  0  0  0
    2.1008   -9.0410   29.1852 N   0  0  0  0  0  0  0  0  0  0  0  0
    3.4829  -10.5697   30.2091 N   0  0  0  0  0  0  0  0  0  0  0  0
   -0.3363   -6.1172   27.5628 C   0  0  0  0  0  0  0  0  0  0  0  0
    3.0331   -7.4400   27.6362 C   0  0  0  0  0  0  0  0  0  0  0  0
    5.4553   -8.5933   27.9644 C   0  0  0  0  0  0  0  0  0  0  0  0
   -2.3870  -12.8440   19.2512 C   0  0  0  0  0  0  0  0  0  0  0  0
    0.5331   -7.6964   16.2751 C   0  0  0  0  0  0  0  0  0  0  0  0
   -0.6740  -10.8737   18.0482 C   0  0  0  0  0  0  0  0  0  0  0  0
    5.6751  -10.5870   29.7637 O   0  0  0  0  0  0  0  0  0  0  0  0
    1.7612   -5.6483   26.7172 C   0  0  0  0  0  0  0  0  0  0  0  0
    0.2221   -9.8326   17.4055 C   0  0  0  0  0  0  0  0  0  0  0  0
    4.3850   -9.0730   28.6745 C   0  0  0  0  0  0  0  0  0  0  0  0
  1  7  4  0
  1 22  4  0
  2 17  4  0
  2 20  4  0
  2 28  4  0
  3  6  1  0
  3 19  1  0
  4 19  1  0
  4 26  1  0
  5 17  4  0
  5 18  4  0
  6 20  1  0
  6 26  1  0
  7 24  4  0
  8 15  4  0
  8 24  4  0
  9 14  4  0
  9 21  4  0
 10 12  4  0
 10 27  4  0
 11 12  4  0
 11 23  4  0
 13 23  4  0
 13 27  4  0
 14 20  4  0
 15 22  4  0
 16 18  4  0
 16 25  2  0
 16 28  4  0
 21 28  4  0
 24 27  1  0
M  END
$$$$

 Created by Python create_sdf_string function

 28 31  0  0  0  0  0  0  0  0999 V2000
   -1.0054  -13.0622   19.1198 C   0  0  0  0  0  0  0  0  0  0  0  0
    3.1478   -8.5360   28.5161 C   0  0  0  0  0  0  0  0  0  0  0  0
    0.5798   -7.1906   27.9330 C   0  0  0  0  0  0  0  0  0  0  0  0
    0.3978   -5.1561   26.6955 C   0  0  0  0  0  0  0  0  0  0  0  0
    2.3063  -10.0533   30.0125 C   0  0  0  0  0  0  0  0  0  0  0  0
    1.8591   -6.8254   27.4685 N   0  0  0  0  0  0  0  0  0  0  0  0
   -0.2167  -12.1055   18.5568 C   0  0  0  0  0  0  0  0  0  0  0  0
   -2.0661  -10.6994   18.1916 C   0  0  0  0  0  0  0  0  0  0  0  0
    5.2703   -7.5691   27.1123 C   0  0  0  0  0  0  0  0  0  0  0  0
    1.6204   -9.9887   17.2935 C   0  0  0  0  0  0  0  0  0  0  0  0
    1.8931   -7.9265   16.2047 C   0  0  0  0  0  0  0  0  0  0  0  0
    2.4396   -9.0801   16.7132 C   0  0  0  0  0  0  0  0  0  0  0  0
   -0.2575   -8.6234   16.8582 C   0  0  0  0  0  0  0  0  0  0  0  0
    4.0614   -7.0367   27.0106 N   0  0  0  0  0  0  0  0  0  0  0  0
   -2.9133  -11.6279   18.7578 C   0  0  0  0  0  0  0  0  0  0  0  0
    4.5688  -10.1291   29.5758 C   0  0  0  0  0  0  0  0  0  0  0  0
    2.1008   -9.0410   29.1852 N   0  0  0  0  0  0  0  0  0  0  0  0
    3.4829  -10.5697   30.2091 N   0  0  0  0  0  0  0  0  0  0  0  0
   -0.3363   -6.1172   27.5628 C   0  0  0  0  0  0  0  0  0  0  0  0
    3.0331   -7.4400   27.6362 C   0  0  0  0  0  0  0  0  0  0  0  0
    5.4553   -8.5933   27.9644 C   0  0  0  0  0  0  0  0  0  0  0  0
   -2.3870  -12.8440   19.2512 C   0  0  0  0  0  0  0  0  0  0  0  0
    0.5331   -7.6964   16.2751 C   0  0  0  0  0  0  0  0  0  0  0  0
   -0.6740  -10.8737   18.0482 C   0  0  0  0  0  0  0  0  0  0  0  0
    5.6751  -10.5870   29.7637 O   0  0  0  0  0  0  0  0  0  0  0  0
    1.7612   -5.6483   26.7172 C   0  0  0  0  0  0  0  0  0  0  0  0
    0.2221   -9.8326   17.4055 C   0  0  0  0  0  0  0  0  0  0  0  0
    4.3850   -9.0730   28.6745 C   0  0  0  0  0  0  0  0  0  0  0  0
  1  7  4  0
  1 22  4  0
  2 17  4  0
  2 20  4  0
  2 28  4  0
  3  6  1  0
  3 19  1  0
  4 19  1  0
  4 26  1  0
  5 17  4  0
  5 18  4  0
  6 20  1  0
  6 26  1  0
  7 24  4  0
  8 15  4  0
  8 24  4  0
  9 14  4  0
  9 21  4  0
 10 12  4  0
 10 27  4  0
 11 12  4  0
 11 23  4  0
 13 23  4  0
 13 27  4  0
 14 20  4  0
 15 22  4  0
 16 18  4  0
 16 25  2  0
 16 28  4  0
 21 28  4  0
 24 27  1  0
M  END
$$$$

 Created by Python create_sdf_string function

 28 31  0  0  0  0  0  0  0  0999 V2000
   -1.0054  -13.0622   19.1198 C   0  0  0  0  0  0  0  0  0  0  0  0
    3.1478   -8.5360   28.5161 C   0  0  0  0  0  0  0  0  0  0  0  0
    0.5798   -7.1906   27.9330 C   0  0  0  0  0  0  0  0  0  0  0  0
    0.3978   -5.1561   26.6955 C   0  0  0  0  0  0  0  0  0  0  0  0
    2.3063  -10.0533   30.0125 C   0  0  0  0  0  0  0  0  0  0  0  0
    1.8591   -6.8254   27.4685 N   0  0  0  0  0  0  0  0  0  0  0  0
   -0.2167  -12.1055   18.5568 C   0  0  0  0  0  0  0  0  0  0  0  0
   -2.0661  -10.6994   18.1916 C   0  0  0  0  0  0  0  0  0  0  0  0
    5.2703   -7.5691   27.1123 C   0  0  0  0  0  0  0  0  0  0  0  0
    1.6204   -9.9887   17.2935 C   0  0  0  0  0  0  0  0  0  0  0  0
    1.8931   -7.9265   16.2047 C   0  0  0  0  0  0  0  0  0  0  0  0
    2.4396   -9.0801   16.7132 C   0  0  0  0  0  0  0  0  0  0  0  0
   -0.2575   -8.6234   16.8582 C   0  0  0  0  0  0  0  0  0  0  0  0
    4.0614   -7.0367   27.0106 N   0  0  0  0  0  0  0  0  0  0  0  0
   -2.9133  -11.6279   18.7578 C   0  0  0  0  0  0  0  0  0  0  0  0
    4.5688  -10.1291   29.5758 C   0  0  0  0  0  0  0  0  0  0  0  0
    2.1008   -9.0410   29.1852 N   0  0  0  0  0  0  0  0  0  0  0  0
    3.4829  -10.5697   30.2091 N   0  0  0  0  0  0  0  0  0  0  0  0
   -0.3363   -6.1172   27.5628 C   0  0  0  0  0  0  0  0  0  0  0  0
    3.0331   -7.4400   27.6362 C   0  0  0  0  0  0  0  0  0  0  0  0
    5.4553   -8.5933   27.9644 C   0  0  0  0  0  0  0  0  0  0  0  0
   -2.3870  -12.8440   19.2512 C   0  0  0  0  0  0  0  0  0  0  0  0
    0.5331   -7.6964   16.2751 C   0  0  0  0  0  0  0  0  0  0  0  0
   -0.6740  -10.8737   18.0482 C   0  0  0  0  0  0  0  0  0  0  0  0
    5.6751  -10.5870   29.7637 O   0  0  0  0  0  0  0  0  0  0  0  0
    1.7612   -5.6483   26.7172 C   0  0  0  0  0  0  0  0  0  0  0  0
    0.2221   -9.8326   17.4055 C   0  0  0  0  0  0  0  0  0  0  0  0
    4.3850   -9.0730   28.6745 C   0  0  0  0  0  0  0  0  0  0  0  0
  1  7  4  0
  1 22  4  0
  2 17  4  0
  2 20  4  0
  2 28  4  0
  3  6  1  0
  3 19  1  0
  4 19  1  0
  4 26  1  0
  5 17  4  0
  5 18  4  0
  6 20  1  0
  6 26  1  0
  7 24  4  0
  8 15  4  0
  8 24  4  0
  9 14  4  0
  9 21  4  0
 10 12  4  0
 10 27  4  0
 11 12  4  0
 11 23  4  0
 13 23  4  0
 13 27  4  0
 14 20  4  0
 15 22  4  0
 16 18  4  0
 16 25  2  0
 16 28  4  0
 21 28  4  0
 24 27  1  0
M  END
$$$$

 Created by Python create_sdf_string function

 28 31  0  0  0  0  0  0  0  0999 V2000
   -1.0054  -13.0622   19.1198 C   0  0  0  0  0  0  0  0  0  0  0  0
    3.1478   -8.5360   28.5161 C   0  0  0  0  0  0  0  0  0  0  0  0
    0.5798   -7.1906   27.9330 C   0  0  0  0  0  0  0  0  0  0  0  0
    0.3978   -5.1561   26.6955 C   0  0  0  0  0  0  0  0  0  0  0  0
    2.3063  -10.0533   30.0125 C   0  0  0  0  0  0  0  0  0  0  0  0
    1.8591   -6.8254   27.4685 N   0  0  0  0  0  0  0  0  0  0  0  0
   -0.2167  -12.1055   18.5568 C   0  0  0  0  0  0  0  0  0  0  0  0
   -2.0661  -10.6994   18.1916 C   0  0  0  0  0  0  0  0  0  0  0  0
    5.2703   -7.5691   27.1123 C   0  0  0  0  0  0  0  0  0  0  0  0
    1.6204   -9.9887   17.2935 C   0  0  0  0  0  0  0  0  0  0  0  0
    1.8931   -7.9265   16.2047 C   0  0  0  0  0  0  0  0  0  0  0  0
    2.4396   -9.0801   16.7132 C   0  0  0  0  0  0  0  0  0  0  0  0
   -0.2575   -8.6234   16.8582 C   0  0  0  0  0  0  0  0  0  0  0  0
    4.0614   -7.0367   27.0106 N   0  0  0  0  0  0  0  0  0  0  0  0
   -2.9133  -11.6279   18.7578 C   0  0  0  0  0  0  0  0  0  0  0  0
    4.5688  -10.1291   29.5758 C   0  0  0  0  0  0  0  0  0  0  0  0
    2.1008   -9.0410   29.1852 N   0  0  0  0  0  0  0  0  0  0  0  0
    3.4829  -10.5697   30.2091 N   0  0  0  0  0  0  0  0  0  0  0  0
   -0.3363   -6.1172   27.5628 C   0  0  0  0  0  0  0  0  0  0  0  0
    3.0331   -7.4400   27.6362 C   0  0  0  0  0  0  0  0  0  0  0  0
    5.4553   -8.5933   27.9644 C   0  0  0  0  0  0  0  0  0  0  0  0
   -2.3870  -12.8440   19.2512 C   0  0  0  0  0  0  0  0  0  0  0  0
    0.5331   -7.6964   16.2751 C   0  0  0  0  0  0  0  0  0  0  0  0
   -0.6740  -10.8737   18.0482 C   0  0  0  0  0  0  0  0  0  0  0  0
    5.6751  -10.5870   29.7637 O   0  0  0  0  0  0  0  0  0  0  0  0
    1.7612   -5.6483   26.7172 C   0  0  0  0  0  0  0  0  0  0  0  0
    0.2221   -9.8326   17.4055 C   0  0  0  0  0  0  0  0  0  0  0  0
    4.3850   -9.0730   28.6745 C   0  0  0  0  0  0  0  0  0  0  0  0
  1  7  4  0
  1 22  4  0
  2 17  4  0
  2 20  4  0
  2 28  4  0
  3  6  1  0
  3 19  1  0
  4 19  1  0
  4 26  1  0
  5 17  4  0
  5 18  4  0
  6 20  1  0
  6 26  1  0
  7 24  4  0
  8 15  4  0
  8 24  4  0
  9 14  4  0
  9 21  4  0
 10 12  4  0
 10 27  4  0
 11 12  4  0
 11 23  4  0
 13 23  4  0
 13 27  4  0
 14 20  4  0
 15 22  4  0
 16 18  4  0
 16 25  2  0
 16 28  4  0
 21 28  4  0
 24 27  1  0
M  END
$$$$

 Created by Python create_sdf_string function

 28 31  0  0  0  0  0  0  0  0999 V2000
   -1.0054  -13.0622   19.1198 C   0  0  0  0  0  0  0  0  0  0  0  0
    3.1478   -8.5360   28.5161 C   0  0  0  0  0  0  0  0  0  0  0  0
    0.5798   -7.1906   27.9330 C   0  0  0  0  0  0  0  0  0  0  0  0
    0.3978   -5.1561   26.6955 C   0  0  0  0  0  0  0  0  0  0  0  0
    2.3063  -10.0533   30.0125 C   0  0  0  0  0  0  0  0  0  0  0  0
    1.8591   -6.8254   27.4685 N   0  0  0  0  0  0  0  0  0  0  0  0
   -0.2167  -12.1055   18.5568 C   0  0  0  0  0  0  0  0  0  0  0  0
   -2.0661  -10.6994   18.1916 C   0  0  0  0  0  0  0  0  0  0  0  0
    5.2703   -7.5691   27.1123 C   0  0  0  0  0  0  0  0  0  0  0  0
    1.6204   -9.9887   17.2935 C   0  0  0  0  0  0  0  0  0  0  0  0
    1.8931   -7.9265   16.2047 C   0  0  0  0  0  0  0  0  0  0  0  0
    2.4396   -9.0801   16.7132 C   0  0  0  0  0  0  0  0  0  0  0  0
   -0.2575   -8.6234   16.8582 C   0  0  0  0  0  0  0  0  0  0  0  0
    4.0614   -7.0367   27.0106 N   0  0  0  0  0  0  0  0  0  0  0  0
   -2.9133  -11.6279   18.7578 C   0  0  0  0  0  0  0  0  0  0  0  0
    4.5688  -10.1291   29.5758 C   0  0  0  0  0  0  0  0  0  0  0  0
    2.1008   -9.0410   29.1852 N   0  0  0  0  0  0  0  0  0  0  0  0
    3.4829  -10.5697   30.2091 N   0  0  0  0  0  0  0  0  0  0  0  0
   -0.3363   -6.1172   27.5628 C   0  0  0  0  0  0  0  0  0  0  0  0
    3.0331   -7.4400   27.6362 C   0  0  0  0  0  0  0  0  0  0  0  0
    5.4553   -8.5933   27.9644 C   0  0  0  0  0  0  0  0  0  0  0  0
   -2.3870  -12.8440   19.2512 C   0  0  0  0  0  0  0  0  0  0  0  0
    0.5331   -7.6964   16.2751 C   0  0  0  0  0  0  0  0  0  0  0  0
   -0.6740  -10.8737   18.0482 C   0  0  0  0  0  0  0  0  0  0  0  0
    5.6751  -10.5870   29.7637 O   0  0  0  0  0  0  0  0  0  0  0  0
    1.7612   -5.6483   26.7172 C   0  0  0  0  0  0  0  0  0  0  0  0
    0.2221   -9.8326   17.4055 C   0  0  0  0  0  0  0  0  0  0  0  0
    4.3850   -9.0730   28.6745 C   0  0  0  0  0  0  0  0  0  0  0  0
  1  7  4  0
  1 22  4  0
  2 17  4  0
  2 20  4  0
  2 28  4  0
  3  6  1  0
  3 19  1  0
  4 19  1  0
  4 26  1  0
  5 17  4  0
  5 18  4  0
  6 20  1  0
  6 26  1  0
  7 24  4  0
  8 15  4  0
  8 24  4  0
  9 14  4  0
  9 21  4  0
 10 12  4  0
 10 27  4  0
 11 12  4  0
 11 23  4  0
 13 23  4  0
 13 27  4  0
 14 20  4  0
 15 22  4  0
 16 18  4  0
 16 25  2  0
 16 28  4  0
 21 28  4  0
 24 27  1  0
M  END
$$$$

 Created by Python create_sdf_string function

 28 31  0  0  0  0  0  0  0  0999 V2000
   -1.0054  -13.0622   19.1198 C   0  0  0  0  0  0  0  0  0  0  0  0
    3.1478   -8.5360   28.5161 C   0  0  0  0  0  0  0  0  0  0  0  0
    0.5798   -7.1906   27.9330 C   0  0  0  0  0  0  0  0  0  0  0  0
    0.3978   -5.1561   26.6955 C   0  0  0  0  0  0  0  0  0  0  0  0
    2.3063  -10.0533   30.0125 C   0  0  0  0  0  0  0  0  0  0  0  0
    1.8591   -6.8254   27.4685 N   0  0  0  0  0  0  0  0  0  0  0  0
   -0.2167  -12.1055   18.5568 C   0  0  0  0  0  0  0  0  0  0  0  0
   -2.0661  -10.6994   18.1916 C   0  0  0  0  0  0  0  0  0  0  0  0
    5.2703   -7.5691   27.1123 C   0  0  0  0  0  0  0  0  0  0  0  0
    1.6204   -9.9887   17.2935 C   0  0  0  0  0  0  0  0  0  0  0  0
    1.8931   -7.9265   16.2047 C   0  0  0  0  0  0  0  0  0  0  0  0
    2.4396   -9.0801   16.7132 C   0  0  0  0  0  0  0  0  0  0  0  0
   -0.2575   -8.6234   16.8582 C   0  0  0  0  0  0  0  0  0  0  0  0
    4.0614   -7.0367   27.0106 N   0  0  0  0  0  0  0  0  0  0  0  0
   -2.9133  -11.6279   18.7578 C   0  0  0  0  0  0  0  0  0  0  0  0
    4.5688  -10.1291   29.5758 C   0  0  0  0  0  0  0  0  0  0  0  0
    2.1008   -9.0410   29.1852 N   0  0  0  0  0  0  0  0  0  0  0  0
    3.4829  -10.5697   30.2091 N   0  0  0  0  0  0  0  0  0  0  0  0
   -0.3363   -6.1172   27.5628 C   0  0  0  0  0  0  0  0  0  0  0  0
    3.0331   -7.4400   27.6362 C   0  0  0  0  0  0  0  0  0  0  0  0
    5.4553   -8.5933   27.9644 C   0  0  0  0  0  0  0  0  0  0  0  0
   -2.3870  -12.8440   19.2512 C   0  0  0  0  0  0  0  0  0  0  0  0
    0.5331   -7.6964   16.2751 C   0  0  0  0  0  0  0  0  0  0  0  0
   -0.6740  -10.8737   18.0482 C   0  0  0  0  0  0  0  0  0  0  0  0
    5.6751  -10.5870   29.7637 O   0  0  0  0  0  0  0  0  0  0  0  0
    1.7612   -5.6483   26.7172 C   0  0  0  0  0  0  0  0  0  0  0  0
    0.2221   -9.8326   17.4055 C   0  0  0  0  0  0  0  0  0  0  0  0
    4.3850   -9.0730   28.6745 C   0  0  0  0  0  0  0  0  0  0  0  0
  1  7  4  0
  1 22  4  0
  2 17  4  0
  2 20  4  0
  2 28  4  0
  3  6  1  0
  3 19  1  0
  4 19  1  0
  4 26  1  0
  5 17  4  0
  5 18  4  0
  6 20  1  0
  6 26  1  0
  7 24  4  0
  8 15  4  0
  8 24  4  0
  9 14  4  0
  9 21  4  0
 10 12  4  0
 10 27  4  0
 11 12  4  0
 11 23  4  0
 13 23  4  0
 13 27  4  0
 14 20  4  0
 15 22  4  0
 16 18  4  0
 16 25  2  0
 16 28  4  0
 21 28  4  0
 24 27  1  0
M  END
$$$$

 Created by Python create_sdf_string function

 28 31  0  0  0  0  0  0  0  0999 V2000
   -1.0054  -13.0622   19.1198 C   0  0  0  0  0  0  0  0  0  0  0  0
    3.1478   -8.5360   28.5161 C   0  0  0  0  0  0  0  0  0  0  0  0
    0.5798   -7.1906   27.9330 C   0  0  0  0  0  0  0  0  0  0  0  0
    0.3978   -5.1561   26.6955 C   0  0  0  0  0  0  0  0  0  0  0  0
    2.3063  -10.0533   30.0125 C   0  0  0  0  0  0  0  0  0  0  0  0
    1.8591   -6.8254   27.4685 N   0  0  0  0  0  0  0  0  0  0  0  0
   -0.2167  -12.1055   18.5568 C   0  0  0  0  0  0  0  0  0  0  0  0
   -2.0661  -10.6994   18.1916 C   0  0  0  0  0  0  0  0  0  0  0  0
    5.2703   -7.5691   27.1123 C   0  0  0  0  0  0  0  0  0  0  0  0
    1.6204   -9.9887   17.2935 C   0  0  0  0  0  0  0  0  0  0  0  0
    1.8931   -7.9265   16.2047 C   0  0  0  0  0  0  0  0  0  0  0  0
    2.4396   -9.0801   16.7132 C   0  0  0  0  0  0  0  0  0  0  0  0
   -0.2575   -8.6234   16.8582 C   0  0  0  0  0  0  0  0  0  0  0  0
    4.0614   -7.0367   27.0106 N   0  0  0  0  0  0  0  0  0  0  0  0
   -2.9133  -11.6279   18.7578 C   0  0  0  0  0  0  0  0  0  0  0  0
    4.5688  -10.1291   29.5758 C   0  0  0  0  0  0  0  0  0  0  0  0
    2.1008   -9.0410   29.1852 N   0  0  0  0  0  0  0  0  0  0  0  0
    3.4829  -10.5697   30.2091 N   0  0  0  0  0  0  0  0  0  0  0  0
   -0.3363   -6.1172   27.5628 C   0  0  0  0  0  0  0  0  0  0  0  0
    3.0331   -7.4400   27.6362 C   0  0  0  0  0  0  0  0  0  0  0  0
    5.4553   -8.5933   27.9644 C   0  0  0  0  0  0  0  0  0  0  0  0
   -2.3870  -12.8440   19.2512 C   0  0  0  0  0  0  0  0  0  0  0  0
    0.5331   -7.6964   16.2751 C   0  0  0  0  0  0  0  0  0  0  0  0
   -0.6740  -10.8737   18.0482 C   0  0  0  0  0  0  0  0  0  0  0  0
    5.6751  -10.5870   29.7637 O   0  0  0  0  0  0  0  0  0  0  0  0
    1.7612   -5.6483   26.7172 C   0  0  0  0  0  0  0  0  0  0  0  0
    0.2221   -9.8326   17.4055 C   0  0  0  0  0  0  0  0  0  0  0  0
    4.3850   -9.0730   28.6745 C   0  0  0  0  0  0  0  0  0  0  0  0
  1  7  4  0
  1 22  4  0
  2 17  4  0
  2 20  4  0
  2 28  4  0
  3  6  1  0
  3 19  1  0
  4 19  1  0
  4 26  1  0
  5 17  4  0
  5 18  4  0
  6 20  1  0
  6 26  1  0
  7 24  4  0
  8 15  4  0
  8 24  4  0
  9 14  4  0
  9 21  4  0
 10 12  4  0
 10 27  4  0
 11 12  4  0
 11 23  4  0
 13 23  4  0
 13 27  4  0
 14 20  4  0
 15 22  4  0
 16 18  4  0
 16 25  2  0
 16 28  4  0
 21 28  4  0
 24 27  1  0
M  END
$$$$

 Created by Python create_sdf_string function

 28 31  0  0  0  0  0  0  0  0999 V2000
   -1.0054  -13.0622   19.1198 C   0  0  0  0  0  0  0  0  0  0  0  0
    3.1478   -8.5360   28.5161 C   0  0  0  0  0  0  0  0  0  0  0  0
    0.5798   -7.1906   27.9330 C   0  0  0  0  0  0  0  0  0  0  0  0
    0.3978   -5.1561   26.6955 C   0  0  0  0  0  0  0  0  0  0  0  0
    2.3063  -10.0533   30.0125 C   0  0  0  0  0  0  0  0  0  0  0  0
    1.8591   -6.8254   27.4685 N   0  0  0  0  0  0  0  0  0  0  0  0
   -0.2167  -12.1055   18.5568 C   0  0  0  0  0  0  0  0  0  0  0  0
   -2.0661  -10.6994   18.1916 C   0  0  0  0  0  0  0  0  0  0  0  0
    5.2703   -7.5691   27.1123 C   0  0  0  0  0  0  0  0  0  0  0  0
    1.6204   -9.9887   17.2935 C   0  0  0  0  0  0  0  0  0  0  0  0
    1.8931   -7.9265   16.2047 C   0  0  0  0  0  0  0  0  0  0  0  0
    2.4396   -9.0801   16.7132 C   0  0  0  0  0  0  0  0  0  0  0  0
   -0.2575   -8.6234   16.8582 C   0  0  0  0  0  0  0  0  0  0  0  0
    4.0614   -7.0367   27.0106 N   0  0  0  0  0  0  0  0  0  0  0  0
   -2.9133  -11.6279   18.7578 C   0  0  0  0  0  0  0  0  0  0  0  0
    4.5688  -10.1291   29.5758 C   0  0  0  0  0  0  0  0  0  0  0  0
    2.1008   -9.0410   29.1852 N   0  0  0  0  0  0  0  0  0  0  0  0
    3.4829  -10.5697   30.2091 N   0  0  0  0  0  0  0  0  0  0  0  0
   -0.3363   -6.1172   27.5628 C   0  0  0  0  0  0  0  0  0  0  0  0
    3.0331   -7.4400   27.6362 C   0  0  0  0  0  0  0  0  0  0  0  0
    5.4553   -8.5933   27.9644 C   0  0  0  0  0  0  0  0  0  0  0  0
   -2.3870  -12.8440   19.2512 C   0  0  0  0  0  0  0  0  0  0  0  0
    0.5331   -7.6964   16.2751 C   0  0  0  0  0  0  0  0  0  0  0  0
   -0.6740  -10.8737   18.0482 C   0  0  0  0  0  0  0  0  0  0  0  0
    5.6751  -10.5870   29.7637 O   0  0  0  0  0  0  0  0  0  0  0  0
    1.7612   -5.6483   26.7172 C   0  0  0  0  0  0  0  0  0  0  0  0
    0.2221   -9.8326   17.4055 C   0  0  0  0  0  0  0  0  0  0  0  0
    4.3850   -9.0730   28.6745 C   0  0  0  0  0  0  0  0  0  0  0  0
  1  7  4  0
  1 22  4  0
  2 17  4  0
  2 20  4  0
  2 28  4  0
  3  6  1  0
  3 19  1  0
  4 19  1  0
  4 26  1  0
  5 17  4  0
  5 18  4  0
  6 20  1  0
  6 26  1  0
  7 24  4  0
  8 15  4  0
  8 24  4  0
  9 14  4  0
  9 21  4  0
 10 12  4  0
 10 27  4  0
 11 12  4  0
 11 23  4  0
 13 23  4  0
 13 27  4  0
 14 20  4  0
 15 22  4  0
 16 18  4  0
 16 25  2  0
 16 28  4  0
 21 28  4  0
 24 27  1  0
M  END
$$$$

 Created by Python create_sdf_string function

 28 31  0  0  0  0  0  0  0  0999 V2000
   -1.0054  -13.0622   19.1198 C   0  0  0  0  0  0  0  0  0  0  0  0
    3.1478   -8.5360   28.5161 C   0  0  0  0  0  0  0  0  0  0  0  0
    0.5798   -7.1906   27.9330 C   0  0  0  0  0  0  0  0  0  0  0  0
    0.3978   -5.1561   26.6955 C   0  0  0  0  0  0  0  0  0  0  0  0
    2.3063  -10.0533   30.0125 C   0  0  0  0  0  0  0  0  0  0  0  0
    1.8591   -6.8254   27.4685 N   0  0  0  0  0  0  0  0  0  0  0  0
   -0.2167  -12.1055   18.5568 C   0  0  0  0  0  0  0  0  0  0  0  0
   -2.0661  -10.6994   18.1916 C   0  0  0  0  0  0  0  0  0  0  0  0
    5.2703   -7.5691   27.1123 C   0  0  0  0  0  0  0  0  0  0  0  0
    1.6204   -9.9887   17.2935 C   0  0  0  0  0  0  0  0  0  0  0  0
    1.8931   -7.9265   16.2047 C   0  0  0  0  0  0  0  0  0  0  0  0
    2.4396   -9.0801   16.7132 C   0  0  0  0  0  0  0  0  0  0  0  0
   -0.2575   -8.6234   16.8582 C   0  0  0  0  0  0  0  0  0  0  0  0
    4.0614   -7.0367   27.0106 N   0  0  0  0  0  0  0  0  0  0  0  0
   -2.9133  -11.6279   18.7578 C   0  0  0  0  0  0  0  0  0  0  0  0
    4.5688  -10.1291   29.5758 C   0  0  0  0  0  0  0  0  0  0  0  0
    2.1008   -9.0410   29.1852 N   0  0  0  0  0  0  0  0  0  0  0  0
    3.4829  -10.5697   30.2091 N   0  0  0  0  0  0  0  0  0  0  0  0
   -0.3363   -6.1172   27.5628 C   0  0  0  0  0  0  0  0  0  0  0  0
    3.0331   -7.4400   27.6362 C   0  0  0  0  0  0  0  0  0  0  0  0
    5.4553   -8.5933   27.9644 C   0  0  0  0  0  0  0  0  0  0  0  0
   -2.3870  -12.8440   19.2512 C   0  0  0  0  0  0  0  0  0  0  0  0
    0.5331   -7.6964   16.2751 C   0  0  0  0  0  0  0  0  0  0  0  0
   -0.6740  -10.8737   18.0482 C   0  0  0  0  0  0  0  0  0  0  0  0
    5.6751  -10.5870   29.7637 O   0  0  0  0  0  0  0  0  0  0  0  0
    1.7612   -5.6483   26.7172 C   0  0  0  0  0  0  0  0  0  0  0  0
    0.2221   -9.8326   17.4055 C   0  0  0  0  0  0  0  0  0  0  0  0
    4.3850   -9.0730   28.6745 C   0  0  0  0  0  0  0  0  0  0  0  0
  1  7  4  0
  1 22  4  0
  2 17  4  0
  2 20  4  0
  2 28  4  0
  3  6  1  0
  3 19  1  0
  4 19  1  0
  4 26  1  0
  5 17  4  0
  5 18  4  0
  6 20  1  0
  6 26  1  0
  7 24  4  0
  8 15  4  0
  8 24  4  0
  9 14  4  0
  9 21  4  0
 10 12  4  0
 10 27  4  0
 11 12  4  0
 11 23  4  0
 13 23  4  0
 13 27  4  0
 14 20  4  0
 15 22  4  0
 16 18  4  0
 16 25  2  0
 16 28  4  0
 21 28  4  0
 24 27  1  0
M  END
$$$$

 Created by Python create_sdf_string function

 28 31  0  0  0  0  0  0  0  0999 V2000
   -1.0054  -13.0622   19.1198 C   0  0  0  0  0  0  0  0  0  0  0  0
    3.1478   -8.5360   28.5161 C   0  0  0  0  0  0  0  0  0  0  0  0
    0.5798   -7.1906   27.9330 C   0  0  0  0  0  0  0  0  0  0  0  0
    0.3978   -5.1561   26.6955 C   0  0  0  0  0  0  0  0  0  0  0  0
    2.3063  -10.0533   30.0125 C   0  0  0  0  0  0  0  0  0  0  0  0
    1.8591   -6.8254   27.4685 N   0  0  0  0  0  0  0  0  0  0  0  0
   -0.2167  -12.1055   18.5568 C   0  0  0  0  0  0  0  0  0  0  0  0
   -2.0661  -10.6994   18.1916 C   0  0  0  0  0  0  0  0  0  0  0  0
    5.2703   -7.5691   27.1123 C   0  0  0  0  0  0  0  0  0  0  0  0
    1.6204   -9.9887   17.2935 C   0  0  0  0  0  0  0  0  0  0  0  0
    1.8931   -7.9265   16.2047 C   0  0  0  0  0  0  0  0  0  0  0  0
    2.4396   -9.0801   16.7132 C   0  0  0  0  0  0  0  0  0  0  0  0
   -0.2575   -8.6234   16.8582 C   0  0  0  0  0  0  0  0  0  0  0  0
    4.0614   -7.0367   27.0106 N   0  0  0  0  0  0  0  0  0  0  0  0
   -2.9133  -11.6279   18.7578 C   0  0  0  0  0  0  0  0  0  0  0  0
    4.5688  -10.1291   29.5758 C   0  0  0  0  0  0  0  0  0  0  0  0
    2.1008   -9.0410   29.1852 N   0  0  0  0  0  0  0  0  0  0  0  0
    3.4829  -10.5697   30.2091 N   0  0  0  0  0  0  0  0  0  0  0  0
   -0.3363   -6.1172   27.5628 C   0  0  0  0  0  0  0  0  0  0  0  0
    3.0331   -7.4400   27.6362 C   0  0  0  0  0  0  0  0  0  0  0  0
    5.4553   -8.5933   27.9644 C   0  0  0  0  0  0  0  0  0  0  0  0
   -2.3870  -12.8440   19.2512 C   0  0  0  0  0  0  0  0  0  0  0  0
    0.5331   -7.6964   16.2751 C   0  0  0  0  0  0  0  0  0  0  0  0
   -0.6740  -10.8737   18.0482 C   0  0  0  0  0  0  0  0  0  0  0  0
    5.6751  -10.5870   29.7637 O   0  0  0  0  0  0  0  0  0  0  0  0
    1.7612   -5.6483   26.7172 C   0  0  0  0  0  0  0  0  0  0  0  0
    0.2221   -9.8326   17.4055 C   0  0  0  0  0  0  0  0  0  0  0  0
    4.3850   -9.0730   28.6745 C   0  0  0  0  0  0  0  0  0  0  0  0
  1  7  4  0
  1 22  4  0
  2 17  4  0
  2 20  4  0
  2 28  4  0
  3  6  1  0
  3 19  1  0
  4 19  1  0
  4 26  1  0
  5 17  4  0
  5 18  4  0
  6 20  1  0
  6 26  1  0
  7 24  4  0
  8 15  4  0
  8 24  4  0
  9 14  4  0
  9 21  4  0
 10 12  4  0
 10 27  4  0
 11 12  4  0
 11 23  4  0
 13 23  4  0
 13 27  4  0
 14 20  4  0
 15 22  4  0
 16 18  4  0
 16 25  2  0
 16 28  4  0
 21 28  4  0
 24 27  1  0
M  END
$$$$

 Created by Python create_sdf_string function

 28 31  0  0  0  0  0  0  0  0999 V2000
   -1.0054  -13.0622   19.1198 C   0  0  0  0  0  0  0  0  0  0  0  0
    3.1478   -8.5360   28.5161 C   0  0  0  0  0  0  0  0  0  0  0  0
    0.5798   -7.1906   27.9330 C   0  0  0  0  0  0  0  0  0  0  0  0
    0.3978   -5.1561   26.6955 C   0  0  0  0  0  0  0  0  0  0  0  0
    2.3063  -10.0533   30.0125 C   0  0  0  0  0  0  0  0  0  0  0  0
    1.8591   -6.8254   27.4685 N   0  0  0  0  0  0  0  0  0  0  0  0
   -0.2167  -12.1055   18.5568 C   0  0  0  0  0  0  0  0  0  0  0  0
   -2.0661  -10.6994   18.1916 C   0  0  0  0  0  0  0  0  0  0  0  0
    5.2703   -7.5691   27.1123 C   0  0  0  0  0  0  0  0  0  0  0  0
    1.6204   -9.9887   17.2935 C   0  0  0  0  0  0  0  0  0  0  0  0
    1.8931   -7.9265   16.2047 C   0  0  0  0  0  0  0  0  0  0  0  0
    2.4396   -9.0801   16.7132 C   0  0  0  0  0  0  0  0  0  0  0  0
   -0.2575   -8.6234   16.8582 C   0  0  0  0  0  0  0  0  0  0  0  0
    4.0614   -7.0367   27.0106 N   0  0  0  0  0  0  0  0  0  0  0  0
   -2.9133  -11.6279   18.7578 C   0  0  0  0  0  0  0  0  0  0  0  0
    4.5688  -10.1291   29.5758 C   0  0  0  0  0  0  0  0  0  0  0  0
    2.1008   -9.0410   29.1852 N   0  0  0  0  0  0  0  0  0  0  0  0
    3.4829  -10.5697   30.2091 N   0  0  0  0  0  0  0  0  0  0  0  0
   -0.3363   -6.1172   27.5628 C   0  0  0  0  0  0  0  0  0  0  0  0
    3.0331   -7.4400   27.6362 C   0  0  0  0  0  0  0  0  0  0  0  0
    5.4553   -8.5933   27.9644 C   0  0  0  0  0  0  0  0  0  0  0  0
   -2.3870  -12.8440   19.2512 C   0  0  0  0  0  0  0  0  0  0  0  0
    0.5331   -7.6964   16.2751 C   0  0  0  0  0  0  0  0  0  0  0  0
   -0.6740  -10.8737   18.0482 C   0  0  0  0  0  0  0  0  0  0  0  0
    5.6751  -10.5870   29.7637 O   0  0  0  0  0  0  0  0  0  0  0  0
    1.7612   -5.6483   26.7172 C   0  0  0  0  0  0  0  0  0  0  0  0
    0.2221   -9.8326   17.4055 C   0  0  0  0  0  0  0  0  0  0  0  0
    4.3850   -9.0730   28.6745 C   0  0  0  0  0  0  0  0  0  0  0  0
  1  7  4  0
  1 22  4  0
  2 17  4  0
  2 20  4  0
  2 28  4  0
  3  6  1  0
  3 19  1  0
  4 19  1  0
  4 26  1  0
  5 17  4  0
  5 18  4  0
  6 20  1  0
  6 26  1  0
  7 24  4  0
  8 15  4  0
  8 24  4  0
  9 14  4  0
  9 21  4  0
 10 12  4  0
 10 27  4  0
 11 12  4  0
 11 23  4  0
 13 23  4  0
 13 27  4  0
 14 20  4  0
 15 22  4  0
 16 18  4  0
 16 25  2  0
 16 28  4  0
 21 28  4  0
 24 27  1  0
M  END
$$$$

 Created by Python create_sdf_string function

 28 31  0  0  0  0  0  0  0  0999 V2000
   -1.0054  -13.0622   19.1198 C   0  0  0  0  0  0  0  0  0  0  0  0
    3.1478   -8.5360   28.5161 C   0  0  0  0  0  0  0  0  0  0  0  0
    0.5798   -7.1906   27.9330 C   0  0  0  0  0  0  0  0  0  0  0  0
    0.3978   -5.1561   26.6955 C   0  0  0  0  0  0  0  0  0  0  0  0
    2.3063  -10.0533   30.0125 C   0  0  0  0  0  0  0  0  0  0  0  0
    1.8591   -6.8254   27.4685 N   0  0  0  0  0  0  0  0  0  0  0  0
   -0.2167  -12.1055   18.5568 C   0  0  0  0  0  0  0  0  0  0  0  0
   -2.0661  -10.6994   18.1916 C   0  0  0  0  0  0  0  0  0  0  0  0
    5.2703   -7.5691   27.1123 C   0  0  0  0  0  0  0  0  0  0  0  0
    1.6204   -9.9887   17.2935 C   0  0  0  0  0  0  0  0  0  0  0  0
    1.8931   -7.9265   16.2047 C   0  0  0  0  0  0  0  0  0  0  0  0
    2.4396   -9.0801   16.7132 C   0  0  0  0  0  0  0  0  0  0  0  0
   -0.2575   -8.6234   16.8582 C   0  0  0  0  0  0  0  0  0  0  0  0
    4.0614   -7.0367   27.0106 N   0  0  0  0  0  0  0  0  0  0  0  0
   -2.9133  -11.6279   18.7578 C   0  0  0  0  0  0  0  0  0  0  0  0
    4.5688  -10.1291   29.5758 C   0  0  0  0  0  0  0  0  0  0  0  0
    2.1008   -9.0410   29.1852 N   0  0  0  0  0  0  0  0  0  0  0  0
    3.4829  -10.5697   30.2091 N   0  0  0  0  0  0  0  0  0  0  0  0
   -0.3363   -6.1172   27.5628 C   0  0  0  0  0  0  0  0  0  0  0  0
    3.0331   -7.4400   27.6362 C   0  0  0  0  0  0  0  0  0  0  0  0
    5.4553   -8.5933   27.9644 C   0  0  0  0  0  0  0  0  0  0  0  0
   -2.3870  -12.8440   19.2512 C   0  0  0  0  0  0  0  0  0  0  0  0
    0.5331   -7.6964   16.2751 C   0  0  0  0  0  0  0  0  0  0  0  0
   -0.6740  -10.8737   18.0482 C   0  0  0  0  0  0  0  0  0  0  0  0
    5.6751  -10.5870   29.7637 O   0  0  0  0  0  0  0  0  0  0  0  0
    1.7612   -5.6483   26.7172 C   0  0  0  0  0  0  0  0  0  0  0  0
    0.2221   -9.8326   17.4055 C   0  0  0  0  0  0  0  0  0  0  0  0
    4.3850   -9.0730   28.6745 C   0  0  0  0  0  0  0  0  0  0  0  0
  1  7  4  0
  1 22  4  0
  2 17  4  0
  2 20  4  0
  2 28  4  0
  3  6  1  0
  3 19  1  0
  4 19  1  0
  4 26  1  0
  5 17  4  0
  5 18  4  0
  6 20  1  0
  6 26  1  0
  7 24  4  0
  8 15  4  0
  8 24  4  0
  9 14  4  0
  9 21  4  0
 10 12  4  0
 10 27  4  0
 11 12  4  0
 11 23  4  0
 13 23  4  0
 13 27  4  0
 14 20  4  0
 15 22  4  0
 16 18  4  0
 16 25  2  0
 16 28  4  0
 21 28  4  0
 24 27  1  0
M  END
$$$$

 Created by Python create_sdf_string function

 28 31  0  0  0  0  0  0  0  0999 V2000
   -1.0054  -13.0622   19.1198 C   0  0  0  0  0  0  0  0  0  0  0  0
    3.1478   -8.5360   28.5161 C   0  0  0  0  0  0  0  0  0  0  0  0
    0.5798   -7.1906   27.9330 C   0  0  0  0  0  0  0  0  0  0  0  0
    0.3978   -5.1561   26.6955 C   0  0  0  0  0  0  0  0  0  0  0  0
    2.3063  -10.0533   30.0125 C   0  0  0  0  0  0  0  0  0  0  0  0
    1.8591   -6.8254   27.4685 N   0  0  0  0  0  0  0  0  0  0  0  0
   -0.2167  -12.1055   18.5568 C   0  0  0  0  0  0  0  0  0  0  0  0
   -2.0661  -10.6994   18.1916 C   0  0  0  0  0  0  0  0  0  0  0  0
    5.2703   -7.5691   27.1123 C   0  0  0  0  0  0  0  0  0  0  0  0
    1.6204   -9.9887   17.2935 C   0  0  0  0  0  0  0  0  0  0  0  0
    1.8931   -7.9265   16.2047 C   0  0  0  0  0  0  0  0  0  0  0  0
    2.4396   -9.0801   16.7132 C   0  0  0  0  0  0  0  0  0  0  0  0
   -0.2575   -8.6234   16.8582 C   0  0  0  0  0  0  0  0  0  0  0  0
    4.0614   -7.0367   27.0106 N   0  0  0  0  0  0  0  0  0  0  0  0
   -2.9133  -11.6279   18.7578 C   0  0  0  0  0  0  0  0  0  0  0  0
    4.5688  -10.1291   29.5758 C   0  0  0  0  0  0  0  0  0  0  0  0
    2.1008   -9.0410   29.1852 N   0  0  0  0  0  0  0  0  0  0  0  0
    3.4829  -10.5697   30.2091 N   0  0  0  0  0  0  0  0  0  0  0  0
   -0.3363   -6.1172   27.5628 C   0  0  0  0  0  0  0  0  0  0  0  0
    3.0331   -7.4400   27.6362 C   0  0  0  0  0  0  0  0  0  0  0  0
    5.4553   -8.5933   27.9644 C   0  0  0  0  0  0  0  0  0  0  0  0
   -2.3870  -12.8440   19.2512 C   0  0  0  0  0  0  0  0  0  0  0  0
    0.5331   -7.6964   16.2751 C   0  0  0  0  0  0  0  0  0  0  0  0
   -0.6740  -10.8737   18.0482 C   0  0  0  0  0  0  0  0  0  0  0  0
    5.6751  -10.5870   29.7637 O   0  0  0  0  0  0  0  0  0  0  0  0
    1.7612   -5.6483   26.7172 C   0  0  0  0  0  0  0  0  0  0  0  0
    0.2221   -9.8326   17.4055 C   0  0  0  0  0  0  0  0  0  0  0  0
    4.3850   -9.0730   28.6745 C   0  0  0  0  0  0  0  0  0  0  0  0
  1  7  4  0
  1 22  4  0
  2 17  4  0
  2 20  4  0
  2 28  4  0
  3  6  1  0
  3 19  1  0
  4 19  1  0
  4 26  1  0
  5 17  4  0
  5 18  4  0
  6 20  1  0
  6 26  1  0
  7 24  4  0
  8 15  4  0
  8 24  4  0
  9 14  4  0
  9 21  4  0
 10 12  4  0
 10 27  4  0
 11 12  4  0
 11 23  4  0
 13 23  4  0
 13 27  4  0
 14 20  4  0
 15 22  4  0
 16 18  4  0
 16 25  2  0
 16 28  4  0
 21 28  4  0
 24 27  1  0
M  END
$$$$

 Created by Python create_sdf_string function

 28 31  0  0  0  0  0  0  0  0999 V2000
   -1.0054  -13.0622   19.1198 C   0  0  0  0  0  0  0  0  0  0  0  0
    3.1478   -8.5360   28.5161 C   0  0  0  0  0  0  0  0  0  0  0  0
    0.5798   -7.1906   27.9330 C   0  0  0  0  0  0  0  0  0  0  0  0
    0.3978   -5.1561   26.6955 C   0  0  0  0  0  0  0  0  0  0  0  0
    2.3063  -10.0533   30.0125 C   0  0  0  0  0  0  0  0  0  0  0  0
    1.8591   -6.8254   27.4685 N   0  0  0  0  0  0  0  0  0  0  0  0
   -0.2167  -12.1055   18.5568 C   0  0  0  0  0  0  0  0  0  0  0  0
   -2.0661  -10.6994   18.1916 C   0  0  0  0  0  0  0  0  0  0  0  0
    5.2703   -7.5691   27.1123 C   0  0  0  0  0  0  0  0  0  0  0  0
    1.6204   -9.9887   17.2935 C   0  0  0  0  0  0  0  0  0  0  0  0
    1.8931   -7.9265   16.2047 C   0  0  0  0  0  0  0  0  0  0  0  0
    2.4396   -9.0801   16.7132 C   0  0  0  0  0  0  0  0  0  0  0  0
   -0.2575   -8.6234   16.8582 C   0  0  0  0  0  0  0  0  0  0  0  0
    4.0614   -7.0367   27.0106 N   0  0  0  0  0  0  0  0  0  0  0  0
   -2.9133  -11.6279   18.7578 C   0  0  0  0  0  0  0  0  0  0  0  0
    4.5688  -10.1291   29.5758 C   0  0  0  0  0  0  0  0  0  0  0  0
    2.1008   -9.0410   29.1852 N   0  0  0  0  0  0  0  0  0  0  0  0
    3.4829  -10.5697   30.2091 N   0  0  0  0  0  0  0  0  0  0  0  0
   -0.3363   -6.1172   27.5628 C   0  0  0  0  0  0  0  0  0  0  0  0
    3.0331   -7.4400   27.6362 C   0  0  0  0  0  0  0  0  0  0  0  0
    5.4553   -8.5933   27.9644 C   0  0  0  0  0  0  0  0  0  0  0  0
   -2.3870  -12.8440   19.2512 C   0  0  0  0  0  0  0  0  0  0  0  0
    0.5331   -7.6964   16.2751 C   0  0  0  0  0  0  0  0  0  0  0  0
   -0.6740  -10.8737   18.0482 C   0  0  0  0  0  0  0  0  0  0  0  0
    5.6751  -10.5870   29.7637 O   0  0  0  0  0  0  0  0  0  0  0  0
    1.7612   -5.6483   26.7172 C   0  0  0  0  0  0  0  0  0  0  0  0
    0.2221   -9.8326   17.4055 C   0  0  0  0  0  0  0  0  0  0  0  0
    4.3850   -9.0730   28.6745 C   0  0  0  0  0  0  0  0  0  0  0  0
  1  7  4  0
  1 22  4  0
  2 17  4  0
  2 20  4  0
  2 28  4  0
  3  6  1  0
  3 19  1  0
  4 19  1  0
  4 26  1  0
  5 17  4  0
  5 18  4  0
  6 20  1  0
  6 26  1  0
  7 24  4  0
  8 15  4  0
  8 24  4  0
  9 14  4  0
  9 21  4  0
 10 12  4  0
 10 27  4  0
 11 12  4  0
 11 23  4  0
 13 23  4  0
 13 27  4  0
 14 20  4  0
 15 22  4  0
 16 18  4  0
 16 25  2  0
 16 28  4  0
 21 28  4  0
 24 27  1  0
M  END
$$$$

 Created by Python create_sdf_string function

 28 31  0  0  0  0  0  0  0  0999 V2000
   -1.0054  -13.0622   19.1198 C   0  0  0  0  0  0  0  0  0  0  0  0
    3.1478   -8.5360   28.5161 C   0  0  0  0  0  0  0  0  0  0  0  0
    0.5798   -7.1906   27.9330 C   0  0  0  0  0  0  0  0  0  0  0  0
    0.3978   -5.1561   26.6955 C   0  0  0  0  0  0  0  0  0  0  0  0
    2.3063  -10.0533   30.0125 C   0  0  0  0  0  0  0  0  0  0  0  0
    1.8591   -6.8254   27.4685 N   0  0  0  0  0  0  0  0  0  0  0  0
   -0.2167  -12.1055   18.5568 C   0  0  0  0  0  0  0  0  0  0  0  0
   -2.0661  -10.6994   18.1916 C   0  0  0  0  0  0  0  0  0  0  0  0
    5.2703   -7.5691   27.1123 C   0  0  0  0  0  0  0  0  0  0  0  0
    1.6204   -9.9887   17.2935 C   0  0  0  0  0  0  0  0  0  0  0  0
    1.8931   -7.9265   16.2047 C   0  0  0  0  0  0  0  0  0  0  0  0
    2.4396   -9.0801   16.7132 C   0  0  0  0  0  0  0  0  0  0  0  0
   -0.2575   -8.6234   16.8582 C   0  0  0  0  0  0  0  0  0  0  0  0
    4.0614   -7.0367   27.0106 N   0  0  0  0  0  0  0  0  0  0  0  0
   -2.9133  -11.6279   18.7578 C   0  0  0  0  0  0  0  0  0  0  0  0
    4.5688  -10.1291   29.5758 C   0  0  0  0  0  0  0  0  0  0  0  0
    2.1008   -9.0410   29.1852 N   0  0  0  0  0  0  0  0  0  0  0  0
    3.4829  -10.5697   30.2091 N   0  0  0  0  0  0  0  0  0  0  0  0
   -0.3363   -6.1172   27.5628 C   0  0  0  0  0  0  0  0  0  0  0  0
    3.0331   -7.4400   27.6362 C   0  0  0  0  0  0  0  0  0  0  0  0
    5.4553   -8.5933   27.9644 C   0  0  0  0  0  0  0  0  0  0  0  0
   -2.3870  -12.8440   19.2512 C   0  0  0  0  0  0  0  0  0  0  0  0
    0.5331   -7.6964   16.2751 C   0  0  0  0  0  0  0  0  0  0  0  0
   -0.6740  -10.8737   18.0482 C   0  0  0  0  0  0  0  0  0  0  0  0
    5.6751  -10.5870   29.7637 O   0  0  0  0  0  0  0  0  0  0  0  0
    1.7612   -5.6483   26.7172 C   0  0  0  0  0  0  0  0  0  0  0  0
    0.2221   -9.8326   17.4055 C   0  0  0  0  0  0  0  0  0  0  0  0
    4.3850   -9.0730   28.6745 C   0  0  0  0  0  0  0  0  0  0  0  0
  1  7  4  0
  1 22  4  0
  2 17  4  0
  2 20  4  0
  2 28  4  0
  3  6  1  0
  3 19  1  0
  4 19  1  0
  4 26  1  0
  5 17  4  0
  5 18  4  0
  6 20  1  0
  6 26  1  0
  7 24  4  0
  8 15  4  0
  8 24  4  0
  9 14  4  0
  9 21  4  0
 10 12  4  0
 10 27  4  0
 11 12  4  0
 11 23  4  0
 13 23  4  0
 13 27  4  0
 14 20  4  0
 15 22  4  0
 16 18  4  0
 16 25  2  0
 16 28  4  0
 21 28  4  0
 24 27  1  0
M  END
$$$$

 Created by Python create_sdf_string function

 28 31  0  0  0  0  0  0  0  0999 V2000
   -1.0054  -13.0622   19.1198 C   0  0  0  0  0  0  0  0  0  0  0  0
    3.1478   -8.5360   28.5161 C   0  0  0  0  0  0  0  0  0  0  0  0
    0.5798   -7.1906   27.9330 C   0  0  0  0  0  0  0  0  0  0  0  0
    0.3978   -5.1561   26.6955 C   0  0  0  0  0  0  0  0  0  0  0  0
    2.3063  -10.0533   30.0125 C   0  0  0  0  0  0  0  0  0  0  0  0
    1.8591   -6.8254   27.4685 N   0  0  0  0  0  0  0  0  0  0  0  0
   -0.2167  -12.1055   18.5568 C   0  0  0  0  0  0  0  0  0  0  0  0
   -2.0661  -10.6994   18.1916 C   0  0  0  0  0  0  0  0  0  0  0  0
    5.2703   -7.5691   27.1123 C   0  0  0  0  0  0  0  0  0  0  0  0
    1.6204   -9.9887   17.2935 C   0  0  0  0  0  0  0  0  0  0  0  0
    1.8931   -7.9265   16.2047 C   0  0  0  0  0  0  0  0  0  0  0  0
    2.4396   -9.0801   16.7132 C   0  0  0  0  0  0  0  0  0  0  0  0
   -0.2575   -8.6234   16.8582 C   0  0  0  0  0  0  0  0  0  0  0  0
    4.0614   -7.0367   27.0106 N   0  0  0  0  0  0  0  0  0  0  0  0
   -2.9133  -11.6279   18.7578 C   0  0  0  0  0  0  0  0  0  0  0  0
    4.5688  -10.1291   29.5758 C   0  0  0  0  0  0  0  0  0  0  0  0
    2.1008   -9.0410   29.1852 N   0  0  0  0  0  0  0  0  0  0  0  0
    3.4829  -10.5697   30.2091 N   0  0  0  0  0  0  0  0  0  0  0  0
   -0.3363   -6.1172   27.5628 C   0  0  0  0  0  0  0  0  0  0  0  0
    3.0331   -7.4400   27.6362 C   0  0  0  0  0  0  0  0  0  0  0  0
    5.4553   -8.5933   27.9644 C   0  0  0  0  0  0  0  0  0  0  0  0
   -2.3870  -12.8440   19.2512 C   0  0  0  0  0  0  0  0  0  0  0  0
    0.5331   -7.6964   16.2751 C   0  0  0  0  0  0  0  0  0  0  0  0
   -0.6740  -10.8737   18.0482 C   0  0  0  0  0  0  0  0  0  0  0  0
    5.6751  -10.5870   29.7637 O   0  0  0  0  0  0  0  0  0  0  0  0
    1.7612   -5.6483   26.7172 C   0  0  0  0  0  0  0  0  0  0  0  0
    0.2221   -9.8326   17.4055 C   0  0  0  0  0  0  0  0  0  0  0  0
    4.3850   -9.0730   28.6745 C   0  0  0  0  0  0  0  0  0  0  0  0
  1  7  4  0
  1 22  4  0
  2 17  4  0
  2 20  4  0
  2 28  4  0
  3  6  1  0
  3 19  1  0
  4 19  1  0
  4 26  1  0
  5 17  4  0
  5 18  4  0
  6 20  1  0
  6 26  1  0
  7 24  4  0
  8 15  4  0
  8 24  4  0
  9 14  4  0
  9 21  4  0
 10 12  4  0
 10 27  4  0
 11 12  4  0
 11 23  4  0
 13 23  4  0
 13 27  4  0
 14 20  4  0
 15 22  4  0
 16 18  4  0
 16 25  2  0
 16 28  4  0
 21 28  4  0
 24 27  1  0
M  END
$$$$

 Created by Python create_sdf_string function

 28 31  0  0  0  0  0  0  0  0999 V2000
   -1.0054  -13.0622   19.1198 C   0  0  0  0  0  0  0  0  0  0  0  0
    3.1478   -8.5360   28.5161 C   0  0  0  0  0  0  0  0  0  0  0  0
    0.5798   -7.1906   27.9330 C   0  0  0  0  0  0  0  0  0  0  0  0
    0.3978   -5.1561   26.6955 C   0  0  0  0  0  0  0  0  0  0  0  0
    2.3063  -10.0533   30.0125 C   0  0  0  0  0  0  0  0  0  0  0  0
    1.8591   -6.8254   27.4685 N   0  0  0  0  0  0  0  0  0  0  0  0
   -0.2167  -12.1055   18.5568 C   0  0  0  0  0  0  0  0  0  0  0  0
   -2.0661  -10.6994   18.1916 C   0  0  0  0  0  0  0  0  0  0  0  0
    5.2703   -7.5691   27.1123 C   0  0  0  0  0  0  0  0  0  0  0  0
    1.6204   -9.9887   17.2935 C   0  0  0  0  0  0  0  0  0  0  0  0
    1.8931   -7.9265   16.2047 C   0  0  0  0  0  0  0  0  0  0  0  0
    2.4396   -9.0801   16.7132 C   0  0  0  0  0  0  0  0  0  0  0  0
   -0.2575   -8.6234   16.8582 C   0  0  0  0  0  0  0  0  0  0  0  0
    4.0614   -7.0367   27.0106 N   0  0  0  0  0  0  0  0  0  0  0  0
   -2.9133  -11.6279   18.7578 C   0  0  0  0  0  0  0  0  0  0  0  0
    4.5688  -10.1291   29.5758 C   0  0  0  0  0  0  0  0  0  0  0  0
    2.1008   -9.0410   29.1852 N   0  0  0  0  0  0  0  0  0  0  0  0
    3.4829  -10.5697   30.2091 N   0  0  0  0  0  0  0  0  0  0  0  0
   -0.3363   -6.1172   27.5628 C   0  0  0  0  0  0  0  0  0  0  0  0
    3.0331   -7.4400   27.6362 C   0  0  0  0  0  0  0  0  0  0  0  0
    5.4553   -8.5933   27.9644 C   0  0  0  0  0  0  0  0  0  0  0  0
   -2.3870  -12.8440   19.2512 C   0  0  0  0  0  0  0  0  0  0  0  0
    0.5331   -7.6964   16.2751 C   0  0  0  0  0  0  0  0  0  0  0  0
   -0.6740  -10.8737   18.0482 C   0  0  0  0  0  0  0  0  0  0  0  0
    5.6751  -10.5870   29.7637 O   0  0  0  0  0  0  0  0  0  0  0  0
    1.7612   -5.6483   26.7172 C   0  0  0  0  0  0  0  0  0  0  0  0
    0.2221   -9.8326   17.4055 C   0  0  0  0  0  0  0  0  0  0  0  0
    4.3850   -9.0730   28.6745 C   0  0  0  0  0  0  0  0  0  0  0  0
  1  7  4  0
  1 22  4  0
  2 17  4  0
  2 20  4  0
  2 28  4  0
  3  6  1  0
  3 19  1  0
  4 19  1  0
  4 26  1  0
  5 17  4  0
  5 18  4  0
  6 20  1  0
  6 26  1  0
  7 24  4  0
  8 15  4  0
  8 24  4  0
  9 14  4  0
  9 21  4  0
 10 12  4  0
 10 27  4  0
 11 12  4  0
 11 23  4  0
 13 23  4  0
 13 27  4  0
 14 20  4  0
 15 22  4  0
 16 18  4  0
 16 25  2  0
 16 28  4  0
 21 28  4  0
 24 27  1  0
M  END
$$$$

 Created by Python create_sdf_string function

 28 31  0  0  0  0  0  0  0  0999 V2000
   -1.0054  -13.0622   19.1198 C   0  0  0  0  0  0  0  0  0  0  0  0
    3.1478   -8.5360   28.5161 C   0  0  0  0  0  0  0  0  0  0  0  0
    0.5798   -7.1906   27.9330 C   0  0  0  0  0  0  0  0  0  0  0  0
    0.3978   -5.1561   26.6955 C   0  0  0  0  0  0  0  0  0  0  0  0
    2.3063  -10.0533   30.0125 C   0  0  0  0  0  0  0  0  0  0  0  0
    1.8591   -6.8254   27.4685 N   0  0  0  0  0  0  0  0  0  0  0  0
   -0.2167  -12.1055   18.5568 C   0  0  0  0  0  0  0  0  0  0  0  0
   -2.0661  -10.6994   18.1916 C   0  0  0  0  0  0  0  0  0  0  0  0
    5.2703   -7.5691   27.1123 C   0  0  0  0  0  0  0  0  0  0  0  0
    1.6204   -9.9887   17.2935 C   0  0  0  0  0  0  0  0  0  0  0  0
    1.8931   -7.9265   16.2047 C   0  0  0  0  0  0  0  0  0  0  0  0
    2.4396   -9.0801   16.7132 C   0  0  0  0  0  0  0  0  0  0  0  0
   -0.2575   -8.6234   16.8582 C   0  0  0  0  0  0  0  0  0  0  0  0
    4.0614   -7.0367   27.0106 N   0  0  0  0  0  0  0  0  0  0  0  0
   -2.9133  -11.6279   18.7578 C   0  0  0  0  0  0  0  0  0  0  0  0
    4.5688  -10.1291   29.5758 C   0  0  0  0  0  0  0  0  0  0  0  0
    2.1008   -9.0410   29.1852 N   0  0  0  0  0  0  0  0  0  0  0  0
    3.4829  -10.5697   30.2091 N   0  0  0  0  0  0  0  0  0  0  0  0
   -0.3363   -6.1172   27.5628 C   0  0  0  0  0  0  0  0  0  0  0  0
    3.0331   -7.4400   27.6362 C   0  0  0  0  0  0  0  0  0  0  0  0
    5.4553   -8.5933   27.9644 C   0  0  0  0  0  0  0  0  0  0  0  0
   -2.3870  -12.8440   19.2512 C   0  0  0  0  0  0  0  0  0  0  0  0
    0.5331   -7.6964   16.2751 C   0  0  0  0  0  0  0  0  0  0  0  0
   -0.6740  -10.8737   18.0482 C   0  0  0  0  0  0  0  0  0  0  0  0
    5.6751  -10.5870   29.7637 O   0  0  0  0  0  0  0  0  0  0  0  0
    1.7612   -5.6483   26.7172 C   0  0  0  0  0  0  0  0  0  0  0  0
    0.2221   -9.8326   17.4055 C   0  0  0  0  0  0  0  0  0  0  0  0
    4.3850   -9.0730   28.6745 C   0  0  0  0  0  0  0  0  0  0  0  0
  1  7  4  0
  1 22  4  0
  2 17  4  0
  2 20  4  0
  2 28  4  0
  3  6  1  0
  3 19  1  0
  4 19  1  0
  4 26  1  0
  5 17  4  0
  5 18  4  0
  6 20  1  0
  6 26  1  0
  7 24  4  0
  8 15  4  0
  8 24  4  0
  9 14  4  0
  9 21  4  0
 10 12  4  0
 10 27  4  0
 11 12  4  0
 11 23  4  0
 13 23  4  0
 13 27  4  0
 14 20  4  0
 15 22  4  0
 16 18  4  0
 16 25  2  0
 16 28  4  0
 21 28  4  0
 24 27  1  0
M  END
$$$$

 Created by Python create_sdf_string function

 28 31  0  0  0  0  0  0  0  0999 V2000
   -1.0054  -13.0622   19.1198 C   0  0  0  0  0  0  0  0  0  0  0  0
    3.1478   -8.5360   28.5161 C   0  0  0  0  0  0  0  0  0  0  0  0
    0.5798   -7.1906   27.9330 C   0  0  0  0  0  0  0  0  0  0  0  0
    0.3978   -5.1561   26.6955 C   0  0  0  0  0  0  0  0  0  0  0  0
    2.3063  -10.0533   30.0125 C   0  0  0  0  0  0  0  0  0  0  0  0
    1.8591   -6.8254   27.4685 N   0  0  0  0  0  0  0  0  0  0  0  0
   -0.2167  -12.1055   18.5568 C   0  0  0  0  0  0  0  0  0  0  0  0
   -2.0661  -10.6994   18.1916 C   0  0  0  0  0  0  0  0  0  0  0  0
    5.2703   -7.5691   27.1123 C   0  0  0  0  0  0  0  0  0  0  0  0
    1.6204   -9.9887   17.2935 C   0  0  0  0  0  0  0  0  0  0  0  0
    1.8931   -7.9265   16.2047 C   0  0  0  0  0  0  0  0  0  0  0  0
    2.4396   -9.0801   16.7132 C   0  0  0  0  0  0  0  0  0  0  0  0
   -0.2575   -8.6234   16.8582 C   0  0  0  0  0  0  0  0  0  0  0  0
    4.0614   -7.0367   27.0106 N   0  0  0  0  0  0  0  0  0  0  0  0
   -2.9133  -11.6279   18.7578 C   0  0  0  0  0  0  0  0  0  0  0  0
    4.5688  -10.1291   29.5758 C   0  0  0  0  0  0  0  0  0  0  0  0
    2.1008   -9.0410   29.1852 N   0  0  0  0  0  0  0  0  0  0  0  0
    3.4829  -10.5697   30.2091 N   0  0  0  0  0  0  0  0  0  0  0  0
   -0.3363   -6.1172   27.5628 C   0  0  0  0  0  0  0  0  0  0  0  0
    3.0331   -7.4400   27.6362 C   0  0  0  0  0  0  0  0  0  0  0  0
    5.4553   -8.5933   27.9644 C   0  0  0  0  0  0  0  0  0  0  0  0
   -2.3870  -12.8440   19.2512 C   0  0  0  0  0  0  0  0  0  0  0  0
    0.5331   -7.6964   16.2751 C   0  0  0  0  0  0  0  0  0  0  0  0
   -0.6740  -10.8737   18.0482 C   0  0  0  0  0  0  0  0  0  0  0  0
    5.6751  -10.5870   29.7637 O   0  0  0  0  0  0  0  0  0  0  0  0
    1.7612   -5.6483   26.7172 C   0  0  0  0  0  0  0  0  0  0  0  0
    0.2221   -9.8326   17.4055 C   0  0  0  0  0  0  0  0  0  0  0  0
    4.3850   -9.0730   28.6745 C   0  0  0  0  0  0  0  0  0  0  0  0
  1  7  4  0
  1 22  4  0
  2 17  4  0
  2 20  4  0
  2 28  4  0
  3  6  1  0
  3 19  1  0
  4 19  1  0
  4 26  1  0
  5 17  4  0
  5 18  4  0
  6 20  1  0
  6 26  1  0
  7 24  4  0
  8 15  4  0
  8 24  4  0
  9 14  4  0
  9 21  4  0
 10 12  4  0
 10 27  4  0
 11 12  4  0
 11 23  4  0
 13 23  4  0
 13 27  4  0
 14 20  4  0
 15 22  4  0
 16 18  4  0
 16 25  2  0
 16 28  4  0
 21 28  4  0
 24 27  1  0
M  END
$$$$

 Created by Python create_sdf_string function

 28 31  0  0  0  0  0  0  0  0999 V2000
   -1.0054  -13.0622   19.1198 C   0  0  0  0  0  0  0  0  0  0  0  0
    3.1478   -8.5360   28.5161 C   0  0  0  0  0  0  0  0  0  0  0  0
    0.5798   -7.1906   27.9330 C   0  0  0  0  0  0  0  0  0  0  0  0
    0.3978   -5.1561   26.6955 C   0  0  0  0  0  0  0  0  0  0  0  0
    2.3063  -10.0533   30.0125 C   0  0  0  0  0  0  0  0  0  0  0  0
    1.8591   -6.8254   27.4685 N   0  0  0  0  0  0  0  0  0  0  0  0
   -0.2167  -12.1055   18.5568 C   0  0  0  0  0  0  0  0  0  0  0  0
   -2.0661  -10.6994   18.1916 C   0  0  0  0  0  0  0  0  0  0  0  0
    5.2703   -7.5691   27.1123 C   0  0  0  0  0  0  0  0  0  0  0  0
    1.6204   -9.9887   17.2935 C   0  0  0  0  0  0  0  0  0  0  0  0
    1.8931   -7.9265   16.2047 C   0  0  0  0  0  0  0  0  0  0  0  0
    2.4396   -9.0801   16.7132 C   0  0  0  0  0  0  0  0  0  0  0  0
   -0.2575   -8.6234   16.8582 C   0  0  0  0  0  0  0  0  0  0  0  0
    4.0614   -7.0367   27.0106 N   0  0  0  0  0  0  0  0  0  0  0  0
   -2.9133  -11.6279   18.7578 C   0  0  0  0  0  0  0  0  0  0  0  0
    4.5688  -10.1291   29.5758 C   0  0  0  0  0  0  0  0  0  0  0  0
    2.1008   -9.0410   29.1852 N   0  0  0  0  0  0  0  0  0  0  0  0
    3.4829  -10.5697   30.2091 N   0  0  0  0  0  0  0  0  0  0  0  0
   -0.3363   -6.1172   27.5628 C   0  0  0  0  0  0  0  0  0  0  0  0
    3.0331   -7.4400   27.6362 C   0  0  0  0  0  0  0  0  0  0  0  0
    5.4553   -8.5933   27.9644 C   0  0  0  0  0  0  0  0  0  0  0  0
   -2.3870  -12.8440   19.2512 C   0  0  0  0  0  0  0  0  0  0  0  0
    0.5331   -7.6964   16.2751 C   0  0  0  0  0  0  0  0  0  0  0  0
   -0.6740  -10.8737   18.0482 C   0  0  0  0  0  0  0  0  0  0  0  0
    5.6751  -10.5870   29.7637 O   0  0  0  0  0  0  0  0  0  0  0  0
    1.7612   -5.6483   26.7172 C   0  0  0  0  0  0  0  0  0  0  0  0
    0.2221   -9.8326   17.4055 C   0  0  0  0  0  0  0  0  0  0  0  0
    4.3850   -9.0730   28.6745 C   0  0  0  0  0  0  0  0  0  0  0  0
  1  7  4  0
  1 22  4  0
  2 17  4  0
  2 20  4  0
  2 28  4  0
  3  6  1  0
  3 19  1  0
  4 19  1  0
  4 26  1  0
  5 17  4  0
  5 18  4  0
  6 20  1  0
  6 26  1  0
  7 24  4  0
  8 15  4  0
  8 24  4  0
  9 14  4  0
  9 21  4  0
 10 12  4  0
 10 27  4  0
 11 12  4  0
 11 23  4  0
 13 23  4  0
 13 27  4  0
 14 20  4  0
 15 22  4  0
 16 18  4  0
 16 25  2  0
 16 28  4  0
 21 28  4  0
 24 27  1  0
M  END
$$$$

 Created by Python create_sdf_string function

 28 31  0  0  0  0  0  0  0  0999 V2000
   -1.0054  -13.0622   19.1198 C   0  0  0  0  0  0  0  0  0  0  0  0
    3.1478   -8.5360   28.5161 C   0  0  0  0  0  0  0  0  0  0  0  0
    0.5798   -7.1906   27.9330 C   0  0  0  0  0  0  0  0  0  0  0  0
    0.3978   -5.1561   26.6955 C   0  0  0  0  0  0  0  0  0  0  0  0
    2.3063  -10.0533   30.0125 C   0  0  0  0  0  0  0  0  0  0  0  0
    1.8591   -6.8254   27.4685 N   0  0  0  0  0  0  0  0  0  0  0  0
   -0.2167  -12.1055   18.5568 C   0  0  0  0  0  0  0  0  0  0  0  0
   -2.0661  -10.6994   18.1916 C   0  0  0  0  0  0  0  0  0  0  0  0
    5.2703   -7.5691   27.1123 C   0  0  0  0  0  0  0  0  0  0  0  0
    1.6204   -9.9887   17.2935 C   0  0  0  0  0  0  0  0  0  0  0  0
    1.8931   -7.9265   16.2047 C   0  0  0  0  0  0  0  0  0  0  0  0
    2.4396   -9.0801   16.7132 C   0  0  0  0  0  0  0  0  0  0  0  0
   -0.2575   -8.6234   16.8582 C   0  0  0  0  0  0  0  0  0  0  0  0
    4.0614   -7.0367   27.0106 N   0  0  0  0  0  0  0  0  0  0  0  0
   -2.9133  -11.6279   18.7578 C   0  0  0  0  0  0  0  0  0  0  0  0
    4.5688  -10.1291   29.5758 C   0  0  0  0  0  0  0  0  0  0  0  0
    2.1008   -9.0410   29.1852 N   0  0  0  0  0  0  0  0  0  0  0  0
    3.4829  -10.5697   30.2091 N   0  0  0  0  0  0  0  0  0  0  0  0
   -0.3363   -6.1172   27.5628 C   0  0  0  0  0  0  0  0  0  0  0  0
    3.0331   -7.4400   27.6362 C   0  0  0  0  0  0  0  0  0  0  0  0
    5.4553   -8.5933   27.9644 C   0  0  0  0  0  0  0  0  0  0  0  0
   -2.3870  -12.8440   19.2512 C   0  0  0  0  0  0  0  0  0  0  0  0
    0.5331   -7.6964   16.2751 C   0  0  0  0  0  0  0  0  0  0  0  0
   -0.6740  -10.8737   18.0482 C   0  0  0  0  0  0  0  0  0  0  0  0
    5.6751  -10.5870   29.7637 O   0  0  0  0  0  0  0  0  0  0  0  0
    1.7612   -5.6483   26.7172 C   0  0  0  0  0  0  0  0  0  0  0  0
    0.2221   -9.8326   17.4055 C   0  0  0  0  0  0  0  0  0  0  0  0
    4.3850   -9.0730   28.6745 C   0  0  0  0  0  0  0  0  0  0  0  0
  1  7  4  0
  1 22  4  0
  2 17  4  0
  2 20  4  0
  2 28  4  0
  3  6  1  0
  3 19  1  0
  4 19  1  0
  4 26  1  0
  5 17  4  0
  5 18  4  0
  6 20  1  0
  6 26  1  0
  7 24  4  0
  8 15  4  0
  8 24  4  0
  9 14  4  0
  9 21  4  0
 10 12  4  0
 10 27  4  0
 11 12  4  0
 11 23  4  0
 13 23  4  0
 13 27  4  0
 14 20  4  0
 15 22  4  0
 16 18  4  0
 16 25  2  0
 16 28  4  0
 21 28  4  0
 24 27  1  0
M  END
$$$$

 Created by Python create_sdf_string function

 28 31  0  0  0  0  0  0  0  0999 V2000
   -1.0054  -13.0622   19.1198 C   0  0  0  0  0  0  0  0  0  0  0  0
    3.1478   -8.5360   28.5161 C   0  0  0  0  0  0  0  0  0  0  0  0
    0.5798   -7.1906   27.9330 C   0  0  0  0  0  0  0  0  0  0  0  0
    0.3978   -5.1561   26.6955 C   0  0  0  0  0  0  0  0  0  0  0  0
    2.3063  -10.0533   30.0125 C   0  0  0  0  0  0  0  0  0  0  0  0
    1.8591   -6.8254   27.4685 N   0  0  0  0  0  0  0  0  0  0  0  0
   -0.2167  -12.1055   18.5568 C   0  0  0  0  0  0  0  0  0  0  0  0
   -2.0661  -10.6994   18.1916 C   0  0  0  0  0  0  0  0  0  0  0  0
    5.2703   -7.5691   27.1123 C   0  0  0  0  0  0  0  0  0  0  0  0
    1.6204   -9.9887   17.2935 C   0  0  0  0  0  0  0  0  0  0  0  0
    1.8931   -7.9265   16.2047 C   0  0  0  0  0  0  0  0  0  0  0  0
    2.4396   -9.0801   16.7132 C   0  0  0  0  0  0  0  0  0  0  0  0
   -0.2575   -8.6234   16.8582 C   0  0  0  0  0  0  0  0  0  0  0  0
    4.0614   -7.0367   27.0106 N   0  0  0  0  0  0  0  0  0  0  0  0
   -2.9133  -11.6279   18.7578 C   0  0  0  0  0  0  0  0  0  0  0  0
    4.5688  -10.1291   29.5758 C   0  0  0  0  0  0  0  0  0  0  0  0
    2.1008   -9.0410   29.1852 N   0  0  0  0  0  0  0  0  0  0  0  0
    3.4829  -10.5697   30.2091 N   0  0  0  0  0  0  0  0  0  0  0  0
   -0.3363   -6.1172   27.5628 C   0  0  0  0  0  0  0  0  0  0  0  0
    3.0331   -7.4400   27.6362 C   0  0  0  0  0  0  0  0  0  0  0  0
    5.4553   -8.5933   27.9644 C   0  0  0  0  0  0  0  0  0  0  0  0
   -2.3870  -12.8440   19.2512 C   0  0  0  0  0  0  0  0  0  0  0  0
    0.5331   -7.6964   16.2751 C   0  0  0  0  0  0  0  0  0  0  0  0
   -0.6740  -10.8737   18.0482 C   0  0  0  0  0  0  0  0  0  0  0  0
    5.6751  -10.5870   29.7637 O   0  0  0  0  0  0  0  0  0  0  0  0
    1.7612   -5.6483   26.7172 C   0  0  0  0  0  0  0  0  0  0  0  0
    0.2221   -9.8326   17.4055 C   0  0  0  0  0  0  0  0  0  0  0  0
    4.3850   -9.0730   28.6745 C   0  0  0  0  0  0  0  0  0  0  0  0
  1  7  4  0
  1 22  4  0
  2 17  4  0
  2 20  4  0
  2 28  4  0
  3  6  1  0
  3 19  1  0
  4 19  1  0
  4 26  1  0
  5 17  4  0
  5 18  4  0
  6 20  1  0
  6 26  1  0
  7 24  4  0
  8 15  4  0
  8 24  4  0
  9 14  4  0
  9 21  4  0
 10 12  4  0
 10 27  4  0
 11 12  4  0
 11 23  4  0
 13 23  4  0
 13 27  4  0
 14 20  4  0
 15 22  4  0
 16 18  4  0
 16 25  2  0
 16 28  4  0
 21 28  4  0
 24 27  1  0
M  END
$$$$

 Created by Python create_sdf_string function

 28 31  0  0  0  0  0  0  0  0999 V2000
   -1.0054  -13.0622   19.1198 C   0  0  0  0  0  0  0  0  0  0  0  0
    3.1478   -8.5360   28.5161 C   0  0  0  0  0  0  0  0  0  0  0  0
    0.5798   -7.1906   27.9330 C   0  0  0  0  0  0  0  0  0  0  0  0
    0.3978   -5.1561   26.6955 C   0  0  0  0  0  0  0  0  0  0  0  0
    2.3063  -10.0533   30.0125 C   0  0  0  0  0  0  0  0  0  0  0  0
    1.8591   -6.8254   27.4685 N   0  0  0  0  0  0  0  0  0  0  0  0
   -0.2167  -12.1055   18.5568 C   0  0  0  0  0  0  0  0  0  0  0  0
   -2.0661  -10.6994   18.1916 C   0  0  0  0  0  0  0  0  0  0  0  0
    5.2703   -7.5691   27.1123 C   0  0  0  0  0  0  0  0  0  0  0  0
    1.6204   -9.9887   17.2935 C   0  0  0  0  0  0  0  0  0  0  0  0
    1.8931   -7.9265   16.2047 C   0  0  0  0  0  0  0  0  0  0  0  0
    2.4396   -9.0801   16.7132 C   0  0  0  0  0  0  0  0  0  0  0  0
   -0.2575   -8.6234   16.8582 C   0  0  0  0  0  0  0  0  0  0  0  0
    4.0614   -7.0367   27.0106 N   0  0  0  0  0  0  0  0  0  0  0  0
   -2.9133  -11.6279   18.7578 C   0  0  0  0  0  0  0  0  0  0  0  0
    4.5688  -10.1291   29.5758 C   0  0  0  0  0  0  0  0  0  0  0  0
    2.1008   -9.0410   29.1852 N   0  0  0  0  0  0  0  0  0  0  0  0
    3.4829  -10.5697   30.2091 N   0  0  0  0  0  0  0  0  0  0  0  0
   -0.3363   -6.1172   27.5628 C   0  0  0  0  0  0  0  0  0  0  0  0
    3.0331   -7.4400   27.6362 C   0  0  0  0  0  0  0  0  0  0  0  0
    5.4553   -8.5933   27.9644 C   0  0  0  0  0  0  0  0  0  0  0  0
   -2.3870  -12.8440   19.2512 C   0  0  0  0  0  0  0  0  0  0  0  0
    0.5331   -7.6964   16.2751 C   0  0  0  0  0  0  0  0  0  0  0  0
   -0.6740  -10.8737   18.0482 C   0  0  0  0  0  0  0  0  0  0  0  0
    5.6751  -10.5870   29.7637 O   0  0  0  0  0  0  0  0  0  0  0  0
    1.7612   -5.6483   26.7172 C   0  0  0  0  0  0  0  0  0  0  0  0
    0.2221   -9.8326   17.4055 C   0  0  0  0  0  0  0  0  0  0  0  0
    4.3850   -9.0730   28.6745 C   0  0  0  0  0  0  0  0  0  0  0  0
  1  7  4  0
  1 22  4  0
  2 17  4  0
  2 20  4  0
  2 28  4  0
  3  6  1  0
  3 19  1  0
  4 19  1  0
  4 26  1  0
  5 17  4  0
  5 18  4  0
  6 20  1  0
  6 26  1  0
  7 24  4  0
  8 15  4  0
  8 24  4  0
  9 14  4  0
  9 21  4  0
 10 12  4  0
 10 27  4  0
 11 12  4  0
 11 23  4  0
 13 23  4  0
 13 27  4  0
 14 20  4  0
 15 22  4  0
 16 18  4  0
 16 25  2  0
 16 28  4  0
 21 28  4  0
 24 27  1  0
M  END
$$$$

 Created by Python create_sdf_string function

 28 31  0  0  0  0  0  0  0  0999 V2000
   -1.0054  -13.0622   19.1198 C   0  0  0  0  0  0  0  0  0  0  0  0
    3.1478   -8.5360   28.5161 C   0  0  0  0  0  0  0  0  0  0  0  0
    0.5798   -7.1906   27.9330 C   0  0  0  0  0  0  0  0  0  0  0  0
    0.3978   -5.1561   26.6955 C   0  0  0  0  0  0  0  0  0  0  0  0
    2.3063  -10.0533   30.0125 C   0  0  0  0  0  0  0  0  0  0  0  0
    1.8591   -6.8254   27.4685 N   0  0  0  0  0  0  0  0  0  0  0  0
   -0.2167  -12.1055   18.5568 C   0  0  0  0  0  0  0  0  0  0  0  0
   -2.0661  -10.6994   18.1916 C   0  0  0  0  0  0  0  0  0  0  0  0
    5.2703   -7.5691   27.1123 C   0  0  0  0  0  0  0  0  0  0  0  0
    1.6204   -9.9887   17.2935 C   0  0  0  0  0  0  0  0  0  0  0  0
    1.8931   -7.9265   16.2047 C   0  0  0  0  0  0  0  0  0  0  0  0
    2.4396   -9.0801   16.7132 C   0  0  0  0  0  0  0  0  0  0  0  0
   -0.2575   -8.6234   16.8582 C   0  0  0  0  0  0  0  0  0  0  0  0
    4.0614   -7.0367   27.0106 N   0  0  0  0  0  0  0  0  0  0  0  0
   -2.9133  -11.6279   18.7578 C   0  0  0  0  0  0  0  0  0  0  0  0
    4.5688  -10.1291   29.5758 C   0  0  0  0  0  0  0  0  0  0  0  0
    2.1008   -9.0410   29.1852 N   0  0  0  0  0  0  0  0  0  0  0  0
    3.4829  -10.5697   30.2091 N   0  0  0  0  0  0  0  0  0  0  0  0
   -0.3363   -6.1172   27.5628 C   0  0  0  0  0  0  0  0  0  0  0  0
    3.0331   -7.4400   27.6362 C   0  0  0  0  0  0  0  0  0  0  0  0
    5.4553   -8.5933   27.9644 C   0  0  0  0  0  0  0  0  0  0  0  0
   -2.3870  -12.8440   19.2512 C   0  0  0  0  0  0  0  0  0  0  0  0
    0.5331   -7.6964   16.2751 C   0  0  0  0  0  0  0  0  0  0  0  0
   -0.6740  -10.8737   18.0482 C   0  0  0  0  0  0  0  0  0  0  0  0
    5.6751  -10.5870   29.7637 O   0  0  0  0  0  0  0  0  0  0  0  0
    1.7612   -5.6483   26.7172 C   0  0  0  0  0  0  0  0  0  0  0  0
    0.2221   -9.8326   17.4055 C   0  0  0  0  0  0  0  0  0  0  0  0
    4.3850   -9.0730   28.6745 C   0  0  0  0  0  0  0  0  0  0  0  0
  1  7  4  0
  1 22  4  0
  2 17  4  0
  2 20  4  0
  2 28  4  0
  3  6  1  0
  3 19  1  0
  4 19  1  0
  4 26  1  0
  5 17  4  0
  5 18  4  0
  6 20  1  0
  6 26  1  0
  7 24  4  0
  8 15  4  0
  8 24  4  0
  9 14  4  0
  9 21  4  0
 10 12  4  0
 10 27  4  0
 11 12  4  0
 11 23  4  0
 13 23  4  0
 13 27  4  0
 14 20  4  0
 15 22  4  0
 16 18  4  0
 16 25  2  0
 16 28  4  0
 21 28  4  0
 24 27  1  0
M  END
$$$$

 Created by Python create_sdf_string function

 28 31  0  0  0  0  0  0  0  0999 V2000
   -1.0054  -13.0622   19.1198 C   0  0  0  0  0  0  0  0  0  0  0  0
    3.1478   -8.5360   28.5161 C   0  0  0  0  0  0  0  0  0  0  0  0
    0.5798   -7.1906   27.9330 C   0  0  0  0  0  0  0  0  0  0  0  0
    0.3978   -5.1561   26.6955 C   0  0  0  0  0  0  0  0  0  0  0  0
    2.3063  -10.0533   30.0125 C   0  0  0  0  0  0  0  0  0  0  0  0
    1.8591   -6.8254   27.4685 N   0  0  0  0  0  0  0  0  0  0  0  0
   -0.2167  -12.1055   18.5568 C   0  0  0  0  0  0  0  0  0  0  0  0
   -2.0661  -10.6994   18.1916 C   0  0  0  0  0  0  0  0  0  0  0  0
    5.2703   -7.5691   27.1123 C   0  0  0  0  0  0  0  0  0  0  0  0
    1.6204   -9.9887   17.2935 C   0  0  0  0  0  0  0  0  0  0  0  0
    1.8931   -7.9265   16.2047 C   0  0  0  0  0  0  0  0  0  0  0  0
    2.4396   -9.0801   16.7132 C   0  0  0  0  0  0  0  0  0  0  0  0
   -0.2575   -8.6234   16.8582 C   0  0  0  0  0  0  0  0  0  0  0  0
    4.0614   -7.0367   27.0106 N   0  0  0  0  0  0  0  0  0  0  0  0
   -2.9133  -11.6279   18.7578 C   0  0  0  0  0  0  0  0  0  0  0  0
    4.5688  -10.1291   29.5758 C   0  0  0  0  0  0  0  0  0  0  0  0
    2.1008   -9.0410   29.1852 N   0  0  0  0  0  0  0  0  0  0  0  0
    3.4829  -10.5697   30.2091 N   0  0  0  0  0  0  0  0  0  0  0  0
   -0.3363   -6.1172   27.5628 C   0  0  0  0  0  0  0  0  0  0  0  0
    3.0331   -7.4400   27.6362 C   0  0  0  0  0  0  0  0  0  0  0  0
    5.4553   -8.5933   27.9644 C   0  0  0  0  0  0  0  0  0  0  0  0
   -2.3870  -12.8440   19.2512 C   0  0  0  0  0  0  0  0  0  0  0  0
    0.5331   -7.6964   16.2751 C   0  0  0  0  0  0  0  0  0  0  0  0
   -0.6740  -10.8737   18.0482 C   0  0  0  0  0  0  0  0  0  0  0  0
    5.6751  -10.5870   29.7637 O   0  0  0  0  0  0  0  0  0  0  0  0
    1.7612   -5.6483   26.7172 C   0  0  0  0  0  0  0  0  0  0  0  0
    0.2221   -9.8326   17.4055 C   0  0  0  0  0  0  0  0  0  0  0  0
    4.3850   -9.0730   28.6745 C   0  0  0  0  0  0  0  0  0  0  0  0
  1  7  4  0
  1 22  4  0
  2 17  4  0
  2 20  4  0
  2 28  4  0
  3  6  1  0
  3 19  1  0
  4 19  1  0
  4 26  1  0
  5 17  4  0
  5 18  4  0
  6 20  1  0
  6 26  1  0
  7 24  4  0
  8 15  4  0
  8 24  4  0
  9 14  4  0
  9 21  4  0
 10 12  4  0
 10 27  4  0
 11 12  4  0
 11 23  4  0
 13 23  4  0
 13 27  4  0
 14 20  4  0
 15 22  4  0
 16 18  4  0
 16 25  2  0
 16 28  4  0
 21 28  4  0
 24 27  1  0
M  END
$$$$

 Created by Python create_sdf_string function

 28 31  0  0  0  0  0  0  0  0999 V2000
   -1.0054  -13.0622   19.1198 C   0  0  0  0  0  0  0  0  0  0  0  0
    3.1478   -8.5360   28.5161 C   0  0  0  0  0  0  0  0  0  0  0  0
    0.5798   -7.1906   27.9330 C   0  0  0  0  0  0  0  0  0  0  0  0
    0.3978   -5.1561   26.6955 C   0  0  0  0  0  0  0  0  0  0  0  0
    2.3063  -10.0533   30.0125 C   0  0  0  0  0  0  0  0  0  0  0  0
    1.8591   -6.8254   27.4685 N   0  0  0  0  0  0  0  0  0  0  0  0
   -0.2167  -12.1055   18.5568 C   0  0  0  0  0  0  0  0  0  0  0  0
   -2.0661  -10.6994   18.1916 C   0  0  0  0  0  0  0  0  0  0  0  0
    5.2703   -7.5691   27.1123 C   0  0  0  0  0  0  0  0  0  0  0  0
    1.6204   -9.9887   17.2935 C   0  0  0  0  0  0  0  0  0  0  0  0
    1.8931   -7.9265   16.2047 C   0  0  0  0  0  0  0  0  0  0  0  0
    2.4396   -9.0801   16.7132 C   0  0  0  0  0  0  0  0  0  0  0  0
   -0.2575   -8.6234   16.8582 C   0  0  0  0  0  0  0  0  0  0  0  0
    4.0614   -7.0367   27.0106 N   0  0  0  0  0  0  0  0  0  0  0  0
   -2.9133  -11.6279   18.7578 C   0  0  0  0  0  0  0  0  0  0  0  0
    4.5688  -10.1291   29.5758 C   0  0  0  0  0  0  0  0  0  0  0  0
    2.1008   -9.0410   29.1852 N   0  0  0  0  0  0  0  0  0  0  0  0
    3.4829  -10.5697   30.2091 N   0  0  0  0  0  0  0  0  0  0  0  0
   -0.3363   -6.1172   27.5628 C   0  0  0  0  0  0  0  0  0  0  0  0
    3.0331   -7.4400   27.6362 C   0  0  0  0  0  0  0  0  0  0  0  0
    5.4553   -8.5933   27.9644 C   0  0  0  0  0  0  0  0  0  0  0  0
   -2.3870  -12.8440   19.2512 C   0  0  0  0  0  0  0  0  0  0  0  0
    0.5331   -7.6964   16.2751 C   0  0  0  0  0  0  0  0  0  0  0  0
   -0.6740  -10.8737   18.0482 C   0  0  0  0  0  0  0  0  0  0  0  0
    5.6751  -10.5870   29.7637 O   0  0  0  0  0  0  0  0  0  0  0  0
    1.7612   -5.6483   26.7172 C   0  0  0  0  0  0  0  0  0  0  0  0
    0.2221   -9.8326   17.4055 C   0  0  0  0  0  0  0  0  0  0  0  0
    4.3850   -9.0730   28.6745 C   0  0  0  0  0  0  0  0  0  0  0  0
  1  7  4  0
  1 22  4  0
  2 17  4  0
  2 20  4  0
  2 28  4  0
  3  6  1  0
  3 19  1  0
  4 19  1  0
  4 26  1  0
  5 17  4  0
  5 18  4  0
  6 20  1  0
  6 26  1  0
  7 24  4  0
  8 15  4  0
  8 24  4  0
  9 14  4  0
  9 21  4  0
 10 12  4  0
 10 27  4  0
 11 12  4  0
 11 23  4  0
 13 23  4  0
 13 27  4  0
 14 20  4  0
 15 22  4  0
 16 18  4  0
 16 25  2  0
 16 28  4  0
 21 28  4  0
 24 27  1  0
M  END
$$$$

 Created by Python create_sdf_string function

 28 31  0  0  0  0  0  0  0  0999 V2000
   -1.0054  -13.0622   19.1198 C   0  0  0  0  0  0  0  0  0  0  0  0
    3.1478   -8.5360   28.5161 C   0  0  0  0  0  0  0  0  0  0  0  0
    0.5798   -7.1906   27.9330 C   0  0  0  0  0  0  0  0  0  0  0  0
    0.3978   -5.1561   26.6955 C   0  0  0  0  0  0  0  0  0  0  0  0
    2.3063  -10.0533   30.0125 C   0  0  0  0  0  0  0  0  0  0  0  0
    1.8591   -6.8254   27.4685 N   0  0  0  0  0  0  0  0  0  0  0  0
   -0.2167  -12.1055   18.5568 C   0  0  0  0  0  0  0  0  0  0  0  0
   -2.0661  -10.6994   18.1916 C   0  0  0  0  0  0  0  0  0  0  0  0
    5.2703   -7.5691   27.1123 C   0  0  0  0  0  0  0  0  0  0  0  0
    1.6204   -9.9887   17.2935 C   0  0  0  0  0  0  0  0  0  0  0  0
    1.8931   -7.9265   16.2047 C   0  0  0  0  0  0  0  0  0  0  0  0
    2.4396   -9.0801   16.7132 C   0  0  0  0  0  0  0  0  0  0  0  0
   -0.2575   -8.6234   16.8582 C   0  0  0  0  0  0  0  0  0  0  0  0
    4.0614   -7.0367   27.0106 N   0  0  0  0  0  0  0  0  0  0  0  0
   -2.9133  -11.6279   18.7578 C   0  0  0  0  0  0  0  0  0  0  0  0
    4.5688  -10.1291   29.5758 C   0  0  0  0  0  0  0  0  0  0  0  0
    2.1008   -9.0410   29.1852 N   0  0  0  0  0  0  0  0  0  0  0  0
    3.4829  -10.5697   30.2091 N   0  0  0  0  0  0  0  0  0  0  0  0
   -0.3363   -6.1172   27.5628 C   0  0  0  0  0  0  0  0  0  0  0  0
    3.0331   -7.4400   27.6362 C   0  0  0  0  0  0  0  0  0  0  0  0
    5.4553   -8.5933   27.9644 C   0  0  0  0  0  0  0  0  0  0  0  0
   -2.3870  -12.8440   19.2512 C   0  0  0  0  0  0  0  0  0  0  0  0
    0.5331   -7.6964   16.2751 C   0  0  0  0  0  0  0  0  0  0  0  0
   -0.6740  -10.8737   18.0482 C   0  0  0  0  0  0  0  0  0  0  0  0
    5.6751  -10.5870   29.7637 O   0  0  0  0  0  0  0  0  0  0  0  0
    1.7612   -5.6483   26.7172 C   0  0  0  0  0  0  0  0  0  0  0  0
    0.2221   -9.8326   17.4055 C   0  0  0  0  0  0  0  0  0  0  0  0
    4.3850   -9.0730   28.6745 C   0  0  0  0  0  0  0  0  0  0  0  0
  1  7  4  0
  1 22  4  0
  2 17  4  0
  2 20  4  0
  2 28  4  0
  3  6  1  0
  3 19  1  0
  4 19  1  0
  4 26  1  0
  5 17  4  0
  5 18  4  0
  6 20  1  0
  6 26  1  0
  7 24  4  0
  8 15  4  0
  8 24  4  0
  9 14  4  0
  9 21  4  0
 10 12  4  0
 10 27  4  0
 11 12  4  0
 11 23  4  0
 13 23  4  0
 13 27  4  0
 14 20  4  0
 15 22  4  0
 16 18  4  0
 16 25  2  0
 16 28  4  0
 21 28  4  0
 24 27  1  0
M  END
$$$$

 Created by Python create_sdf_string function

 28 31  0  0  0  0  0  0  0  0999 V2000
   -1.0054  -13.0622   19.1198 C   0  0  0  0  0  0  0  0  0  0  0  0
    3.1478   -8.5360   28.5161 C   0  0  0  0  0  0  0  0  0  0  0  0
    0.5798   -7.1906   27.9330 C   0  0  0  0  0  0  0  0  0  0  0  0
    0.3978   -5.1561   26.6955 C   0  0  0  0  0  0  0  0  0  0  0  0
    2.3063  -10.0533   30.0125 C   0  0  0  0  0  0  0  0  0  0  0  0
    1.8591   -6.8254   27.4685 N   0  0  0  0  0  0  0  0  0  0  0  0
   -0.2167  -12.1055   18.5568 C   0  0  0  0  0  0  0  0  0  0  0  0
   -2.0661  -10.6994   18.1916 C   0  0  0  0  0  0  0  0  0  0  0  0
    5.2703   -7.5691   27.1123 C   0  0  0  0  0  0  0  0  0  0  0  0
    1.6204   -9.9887   17.2935 C   0  0  0  0  0  0  0  0  0  0  0  0
    1.8931   -7.9265   16.2047 C   0  0  0  0  0  0  0  0  0  0  0  0
    2.4396   -9.0801   16.7132 C   0  0  0  0  0  0  0  0  0  0  0  0
   -0.2575   -8.6234   16.8582 C   0  0  0  0  0  0  0  0  0  0  0  0
    4.0614   -7.0367   27.0106 N   0  0  0  0  0  0  0  0  0  0  0  0
   -2.9133  -11.6279   18.7578 C   0  0  0  0  0  0  0  0  0  0  0  0
    4.5688  -10.1291   29.5758 C   0  0  0  0  0  0  0  0  0  0  0  0
    2.1008   -9.0410   29.1852 N   0  0  0  0  0  0  0  0  0  0  0  0
    3.4829  -10.5697   30.2091 N   0  0  0  0  0  0  0  0  0  0  0  0
   -0.3363   -6.1172   27.5628 C   0  0  0  0  0  0  0  0  0  0  0  0
    3.0331   -7.4400   27.6362 C   0  0  0  0  0  0  0  0  0  0  0  0
    5.4553   -8.5933   27.9644 C   0  0  0  0  0  0  0  0  0  0  0  0
   -2.3870  -12.8440   19.2512 C   0  0  0  0  0  0  0  0  0  0  0  0
    0.5331   -7.6964   16.2751 C   0  0  0  0  0  0  0  0  0  0  0  0
   -0.6740  -10.8737   18.0482 C   0  0  0  0  0  0  0  0  0  0  0  0
    5.6751  -10.5870   29.7637 O   0  0  0  0  0  0  0  0  0  0  0  0
    1.7612   -5.6483   26.7172 C   0  0  0  0  0  0  0  0  0  0  0  0
    0.2221   -9.8326   17.4055 C   0  0  0  0  0  0  0  0  0  0  0  0
    4.3850   -9.0730   28.6745 C   0  0  0  0  0  0  0  0  0  0  0  0
  1  7  4  0
  1 22  4  0
  2 17  4  0
  2 20  4  0
  2 28  4  0
  3  6  1  0
  3 19  1  0
  4 19  1  0
  4 26  1  0
  5 17  4  0
  5 18  4  0
  6 20  1  0
  6 26  1  0
  7 24  4  0
  8 15  4  0
  8 24  4  0
  9 14  4  0
  9 21  4  0
 10 12  4  0
 10 27  4  0
 11 12  4  0
 11 23  4  0
 13 23  4  0
 13 27  4  0
 14 20  4  0
 15 22  4  0
 16 18  4  0
 16 25  2  0
 16 28  4  0
 21 28  4  0
 24 27  1  0
M  END
$$$$

 Created by Python create_sdf_string function

 28 31  0  0  0  0  0  0  0  0999 V2000
   -1.0054  -13.0622   19.1198 C   0  0  0  0  0  0  0  0  0  0  0  0
    3.1478   -8.5360   28.5161 C   0  0  0  0  0  0  0  0  0  0  0  0
    0.5798   -7.1906   27.9330 C   0  0  0  0  0  0  0  0  0  0  0  0
    0.3978   -5.1561   26.6955 C   0  0  0  0  0  0  0  0  0  0  0  0
    2.3063  -10.0533   30.0125 C   0  0  0  0  0  0  0  0  0  0  0  0
    1.8591   -6.8254   27.4685 N   0  0  0  0  0  0  0  0  0  0  0  0
   -0.2167  -12.1055   18.5568 C   0  0  0  0  0  0  0  0  0  0  0  0
   -2.0661  -10.6994   18.1916 C   0  0  0  0  0  0  0  0  0  0  0  0
    5.2703   -7.5691   27.1123 C   0  0  0  0  0  0  0  0  0  0  0  0
    1.6204   -9.9887   17.2935 C   0  0  0  0  0  0  0  0  0  0  0  0
    1.8931   -7.9265   16.2047 C   0  0  0  0  0  0  0  0  0  0  0  0
    2.4396   -9.0801   16.7132 C   0  0  0  0  0  0  0  0  0  0  0  0
   -0.2575   -8.6234   16.8582 C   0  0  0  0  0  0  0  0  0  0  0  0
    4.0614   -7.0367   27.0106 N   0  0  0  0  0  0  0  0  0  0  0  0
   -2.9133  -11.6279   18.7578 C   0  0  0  0  0  0  0  0  0  0  0  0
    4.5688  -10.1291   29.5758 C   0  0  0  0  0  0  0  0  0  0  0  0
    2.1008   -9.0410   29.1852 N   0  0  0  0  0  0  0  0  0  0  0  0
    3.4829  -10.5697   30.2091 N   0  0  0  0  0  0  0  0  0  0  0  0
   -0.3363   -6.1172   27.5628 C   0  0  0  0  0  0  0  0  0  0  0  0
    3.0331   -7.4400   27.6362 C   0  0  0  0  0  0  0  0  0  0  0  0
    5.4553   -8.5933   27.9644 C   0  0  0  0  0  0  0  0  0  0  0  0
   -2.3870  -12.8440   19.2512 C   0  0  0  0  0  0  0  0  0  0  0  0
    0.5331   -7.6964   16.2751 C   0  0  0  0  0  0  0  0  0  0  0  0
   -0.6740  -10.8737   18.0482 C   0  0  0  0  0  0  0  0  0  0  0  0
    5.6751  -10.5870   29.7637 O   0  0  0  0  0  0  0  0  0  0  0  0
    1.7612   -5.6483   26.7172 C   0  0  0  0  0  0  0  0  0  0  0  0
    0.2221   -9.8326   17.4055 C   0  0  0  0  0  0  0  0  0  0  0  0
    4.3850   -9.0730   28.6745 C   0  0  0  0  0  0  0  0  0  0  0  0
  1  7  4  0
  1 22  4  0
  2 17  4  0
  2 20  4  0
  2 28  4  0
  3  6  1  0
  3 19  1  0
  4 19  1  0
  4 26  1  0
  5 17  4  0
  5 18  4  0
  6 20  1  0
  6 26  1  0
  7 24  4  0
  8 15  4  0
  8 24  4  0
  9 14  4  0
  9 21  4  0
 10 12  4  0
 10 27  4  0
 11 12  4  0
 11 23  4  0
 13 23  4  0
 13 27  4  0
 14 20  4  0
 15 22  4  0
 16 18  4  0
 16 25  2  0
 16 28  4  0
 21 28  4  0
 24 27  1  0
M  END
$$$$

 Created by Python create_sdf_string function

 28 31  0  0  0  0  0  0  0  0999 V2000
   -1.0054  -13.0622   19.1198 C   0  0  0  0  0  0  0  0  0  0  0  0
    3.1478   -8.5360   28.5161 C   0  0  0  0  0  0  0  0  0  0  0  0
    0.5798   -7.1906   27.9330 C   0  0  0  0  0  0  0  0  0  0  0  0
    0.3978   -5.1561   26.6955 C   0  0  0  0  0  0  0  0  0  0  0  0
    2.3063  -10.0533   30.0125 C   0  0  0  0  0  0  0  0  0  0  0  0
    1.8591   -6.8254   27.4685 N   0  0  0  0  0  0  0  0  0  0  0  0
   -0.2167  -12.1055   18.5568 C   0  0  0  0  0  0  0  0  0  0  0  0
   -2.0661  -10.6994   18.1916 C   0  0  0  0  0  0  0  0  0  0  0  0
    5.2703   -7.5691   27.1123 C   0  0  0  0  0  0  0  0  0  0  0  0
    1.6204   -9.9887   17.2935 C   0  0  0  0  0  0  0  0  0  0  0  0
    1.8931   -7.9265   16.2047 C   0  0  0  0  0  0  0  0  0  0  0  0
    2.4396   -9.0801   16.7132 C   0  0  0  0  0  0  0  0  0  0  0  0
   -0.2575   -8.6234   16.8582 C   0  0  0  0  0  0  0  0  0  0  0  0
    4.0614   -7.0367   27.0106 N   0  0  0  0  0  0  0  0  0  0  0  0
   -2.9133  -11.6279   18.7578 C   0  0  0  0  0  0  0  0  0  0  0  0
    4.5688  -10.1291   29.5758 C   0  0  0  0  0  0  0  0  0  0  0  0
    2.1008   -9.0410   29.1852 N   0  0  0  0  0  0  0  0  0  0  0  0
    3.4829  -10.5697   30.2091 N   0  0  0  0  0  0  0  0  0  0  0  0
   -0.3363   -6.1172   27.5628 C   0  0  0  0  0  0  0  0  0  0  0  0
    3.0331   -7.4400   27.6362 C   0  0  0  0  0  0  0  0  0  0  0  0
    5.4553   -8.5933   27.9644 C   0  0  0  0  0  0  0  0  0  0  0  0
   -2.3870  -12.8440   19.2512 C   0  0  0  0  0  0  0  0  0  0  0  0
    0.5331   -7.6964   16.2751 C   0  0  0  0  0  0  0  0  0  0  0  0
   -0.6740  -10.8737   18.0482 C   0  0  0  0  0  0  0  0  0  0  0  0
    5.6751  -10.5870   29.7637 O   0  0  0  0  0  0  0  0  0  0  0  0
    1.7612   -5.6483   26.7172 C   0  0  0  0  0  0  0  0  0  0  0  0
    0.2221   -9.8326   17.4055 C   0  0  0  0  0  0  0  0  0  0  0  0
    4.3850   -9.0730   28.6745 C   0  0  0  0  0  0  0  0  0  0  0  0
  1  7  4  0
  1 22  4  0
  2 17  4  0
  2 20  4  0
  2 28  4  0
  3  6  1  0
  3 19  1  0
  4 19  1  0
  4 26  1  0
  5 17  4  0
  5 18  4  0
  6 20  1  0
  6 26  1  0
  7 24  4  0
  8 15  4  0
  8 24  4  0
  9 14  4  0
  9 21  4  0
 10 12  4  0
 10 27  4  0
 11 12  4  0
 11 23  4  0
 13 23  4  0
 13 27  4  0
 14 20  4  0
 15 22  4  0
 16 18  4  0
 16 25  2  0
 16 28  4  0
 21 28  4  0
 24 27  1  0
M  END
$$$$

 Created by Python create_sdf_string function

 28 31  0  0  0  0  0  0  0  0999 V2000
   -1.0054  -13.0622   19.1198 C   0  0  0  0  0  0  0  0  0  0  0  0
    3.1478   -8.5360   28.5161 C   0  0  0  0  0  0  0  0  0  0  0  0
    0.5798   -7.1906   27.9330 C   0  0  0  0  0  0  0  0  0  0  0  0
    0.3978   -5.1561   26.6955 C   0  0  0  0  0  0  0  0  0  0  0  0
    2.3063  -10.0533   30.0125 C   0  0  0  0  0  0  0  0  0  0  0  0
    1.8591   -6.8254   27.4685 N   0  0  0  0  0  0  0  0  0  0  0  0
   -0.2167  -12.1055   18.5568 C   0  0  0  0  0  0  0  0  0  0  0  0
   -2.0661  -10.6994   18.1916 C   0  0  0  0  0  0  0  0  0  0  0  0
    5.2703   -7.5691   27.1123 C   0  0  0  0  0  0  0  0  0  0  0  0
    1.6204   -9.9887   17.2935 C   0  0  0  0  0  0  0  0  0  0  0  0
    1.8931   -7.9265   16.2047 C   0  0  0  0  0  0  0  0  0  0  0  0
    2.4396   -9.0801   16.7132 C   0  0  0  0  0  0  0  0  0  0  0  0
   -0.2575   -8.6234   16.8582 C   0  0  0  0  0  0  0  0  0  0  0  0
    4.0614   -7.0367   27.0106 N   0  0  0  0  0  0  0  0  0  0  0  0
   -2.9133  -11.6279   18.7578 C   0  0  0  0  0  0  0  0  0  0  0  0
    4.5688  -10.1291   29.5758 C   0  0  0  0  0  0  0  0  0  0  0  0
    2.1008   -9.0410   29.1852 N   0  0  0  0  0  0  0  0  0  0  0  0
    3.4829  -10.5697   30.2091 N   0  0  0  0  0  0  0  0  0  0  0  0
   -0.3363   -6.1172   27.5628 C   0  0  0  0  0  0  0  0  0  0  0  0
    3.0331   -7.4400   27.6362 C   0  0  0  0  0  0  0  0  0  0  0  0
    5.4553   -8.5933   27.9644 C   0  0  0  0  0  0  0  0  0  0  0  0
   -2.3870  -12.8440   19.2512 C   0  0  0  0  0  0  0  0  0  0  0  0
    0.5331   -7.6964   16.2751 C   0  0  0  0  0  0  0  0  0  0  0  0
   -0.6740  -10.8737   18.0482 C   0  0  0  0  0  0  0  0  0  0  0  0
    5.6751  -10.5870   29.7637 O   0  0  0  0  0  0  0  0  0  0  0  0
    1.7612   -5.6483   26.7172 C   0  0  0  0  0  0  0  0  0  0  0  0
    0.2221   -9.8326   17.4055 C   0  0  0  0  0  0  0  0  0  0  0  0
    4.3850   -9.0730   28.6745 C   0  0  0  0  0  0  0  0  0  0  0  0
  1  7  4  0
  1 22  4  0
  2 17  4  0
  2 20  4  0
  2 28  4  0
  3  6  1  0
  3 19  1  0
  4 19  1  0
  4 26  1  0
  5 17  4  0
  5 18  4  0
  6 20  1  0
  6 26  1  0
  7 24  4  0
  8 15  4  0
  8 24  4  0
  9 14  4  0
  9 21  4  0
 10 12  4  0
 10 27  4  0
 11 12  4  0
 11 23  4  0
 13 23  4  0
 13 27  4  0
 14 20  4  0
 15 22  4  0
 16 18  4  0
 16 25  2  0
 16 28  4  0
 21 28  4  0
 24 27  1  0
M  END
$$$$

 Created by Python create_sdf_string function

 28 31  0  0  0  0  0  0  0  0999 V2000
   -1.0054  -13.0622   19.1198 C   0  0  0  0  0  0  0  0  0  0  0  0
    3.1478   -8.5360   28.5161 C   0  0  0  0  0  0  0  0  0  0  0  0
    0.5798   -7.1906   27.9330 C   0  0  0  0  0  0  0  0  0  0  0  0
    0.3978   -5.1561   26.6955 C   0  0  0  0  0  0  0  0  0  0  0  0
    2.3063  -10.0533   30.0125 C   0  0  0  0  0  0  0  0  0  0  0  0
    1.8591   -6.8254   27.4685 N   0  0  0  0  0  0  0  0  0  0  0  0
   -0.2167  -12.1055   18.5568 C   0  0  0  0  0  0  0  0  0  0  0  0
   -2.0661  -10.6994   18.1916 C   0  0  0  0  0  0  0  0  0  0  0  0
    5.2703   -7.5691   27.1123 C   0  0  0  0  0  0  0  0  0  0  0  0
    1.6204   -9.9887   17.2935 C   0  0  0  0  0  0  0  0  0  0  0  0
    1.8931   -7.9265   16.2047 C   0  0  0  0  0  0  0  0  0  0  0  0
    2.4396   -9.0801   16.7132 C   0  0  0  0  0  0  0  0  0  0  0  0
   -0.2575   -8.6234   16.8582 C   0  0  0  0  0  0  0  0  0  0  0  0
    4.0614   -7.0367   27.0106 N   0  0  0  0  0  0  0  0  0  0  0  0
   -2.9133  -11.6279   18.7578 C   0  0  0  0  0  0  0  0  0  0  0  0
    4.5688  -10.1291   29.5758 C   0  0  0  0  0  0  0  0  0  0  0  0
    2.1008   -9.0410   29.1852 N   0  0  0  0  0  0  0  0  0  0  0  0
    3.4829  -10.5697   30.2091 N   0  0  0  0  0  0  0  0  0  0  0  0
   -0.3363   -6.1172   27.5628 C   0  0  0  0  0  0  0  0  0  0  0  0
    3.0331   -7.4400   27.6362 C   0  0  0  0  0  0  0  0  0  0  0  0
    5.4553   -8.5933   27.9644 C   0  0  0  0  0  0  0  0  0  0  0  0
   -2.3870  -12.8440   19.2512 C   0  0  0  0  0  0  0  0  0  0  0  0
    0.5331   -7.6964   16.2751 C   0  0  0  0  0  0  0  0  0  0  0  0
   -0.6740  -10.8737   18.0482 C   0  0  0  0  0  0  0  0  0  0  0  0
    5.6751  -10.5870   29.7637 O   0  0  0  0  0  0  0  0  0  0  0  0
    1.7612   -5.6483   26.7172 C   0  0  0  0  0  0  0  0  0  0  0  0
    0.2221   -9.8326   17.4055 C   0  0  0  0  0  0  0  0  0  0  0  0
    4.3850   -9.0730   28.6745 C   0  0  0  0  0  0  0  0  0  0  0  0
  1  7  4  0
  1 22  4  0
  2 17  4  0
  2 20  4  0
  2 28  4  0
  3  6  1  0
  3 19  1  0
  4 19  1  0
  4 26  1  0
  5 17  4  0
  5 18  4  0
  6 20  1  0
  6 26  1  0
  7 24  4  0
  8 15  4  0
  8 24  4  0
  9 14  4  0
  9 21  4  0
 10 12  4  0
 10 27  4  0
 11 12  4  0
 11 23  4  0
 13 23  4  0
 13 27  4  0
 14 20  4  0
 15 22  4  0
 16 18  4  0
 16 25  2  0
 16 28  4  0
 21 28  4  0
 24 27  1  0
M  END
$$$$

 Created by Python create_sdf_string function

 28 31  0  0  0  0  0  0  0  0999 V2000
   -1.0054  -13.0622   19.1198 C   0  0  0  0  0  0  0  0  0  0  0  0
    3.1478   -8.5360   28.5161 C   0  0  0  0  0  0  0  0  0  0  0  0
    0.5798   -7.1906   27.9330 C   0  0  0  0  0  0  0  0  0  0  0  0
    0.3978   -5.1561   26.6955 C   0  0  0  0  0  0  0  0  0  0  0  0
    2.3063  -10.0533   30.0125 C   0  0  0  0  0  0  0  0  0  0  0  0
    1.8591   -6.8254   27.4685 N   0  0  0  0  0  0  0  0  0  0  0  0
   -0.2167  -12.1055   18.5568 C   0  0  0  0  0  0  0  0  0  0  0  0
   -2.0661  -10.6994   18.1916 C   0  0  0  0  0  0  0  0  0  0  0  0
    5.2703   -7.5691   27.1123 C   0  0  0  0  0  0  0  0  0  0  0  0
    1.6204   -9.9887   17.2935 C   0  0  0  0  0  0  0  0  0  0  0  0
    1.8931   -7.9265   16.2047 C   0  0  0  0  0  0  0  0  0  0  0  0
    2.4396   -9.0801   16.7132 C   0  0  0  0  0  0  0  0  0  0  0  0
   -0.2575   -8.6234   16.8582 C   0  0  0  0  0  0  0  0  0  0  0  0
    4.0614   -7.0367   27.0106 N   0  0  0  0  0  0  0  0  0  0  0  0
   -2.9133  -11.6279   18.7578 C   0  0  0  0  0  0  0  0  0  0  0  0
    4.5688  -10.1291   29.5758 C   0  0  0  0  0  0  0  0  0  0  0  0
    2.1008   -9.0410   29.1852 N   0  0  0  0  0  0  0  0  0  0  0  0
    3.4829  -10.5697   30.2091 N   0  0  0  0  0  0  0  0  0  0  0  0
   -0.3363   -6.1172   27.5628 C   0  0  0  0  0  0  0  0  0  0  0  0
    3.0331   -7.4400   27.6362 C   0  0  0  0  0  0  0  0  0  0  0  0
    5.4553   -8.5933   27.9644 C   0  0  0  0  0  0  0  0  0  0  0  0
   -2.3870  -12.8440   19.2512 C   0  0  0  0  0  0  0  0  0  0  0  0
    0.5331   -7.6964   16.2751 C   0  0  0  0  0  0  0  0  0  0  0  0
   -0.6740  -10.8737   18.0482 C   0  0  0  0  0  0  0  0  0  0  0  0
    5.6751  -10.5870   29.7637 O   0  0  0  0  0  0  0  0  0  0  0  0
    1.7612   -5.6483   26.7172 C   0  0  0  0  0  0  0  0  0  0  0  0
    0.2221   -9.8326   17.4055 C   0  0  0  0  0  0  0  0  0  0  0  0
    4.3850   -9.0730   28.6745 C   0  0  0  0  0  0  0  0  0  0  0  0
  1  7  4  0
  1 22  4  0
  2 17  4  0
  2 20  4  0
  2 28  4  0
  3  6  1  0
  3 19  1  0
  4 19  1  0
  4 26  1  0
  5 17  4  0
  5 18  4  0
  6 20  1  0
  6 26  1  0
  7 24  4  0
  8 15  4  0
  8 24  4  0
  9 14  4  0
  9 21  4  0
 10 12  4  0
 10 27  4  0
 11 12  4  0
 11 23  4  0
 13 23  4  0
 13 27  4  0
 14 20  4  0
 15 22  4  0
 16 18  4  0
 16 25  2  0
 16 28  4  0
 21 28  4  0
 24 27  1  0
M  END
$$$$

 Created by Python create_sdf_string function

 28 31  0  0  0  0  0  0  0  0999 V2000
   -1.0054  -13.0622   19.1198 C   0  0  0  0  0  0  0  0  0  0  0  0
    3.1478   -8.5360   28.5161 C   0  0  0  0  0  0  0  0  0  0  0  0
    0.5798   -7.1906   27.9330 C   0  0  0  0  0  0  0  0  0  0  0  0
    0.3978   -5.1561   26.6955 C   0  0  0  0  0  0  0  0  0  0  0  0
    2.3063  -10.0533   30.0125 C   0  0  0  0  0  0  0  0  0  0  0  0
    1.8591   -6.8254   27.4685 N   0  0  0  0  0  0  0  0  0  0  0  0
   -0.2167  -12.1055   18.5568 C   0  0  0  0  0  0  0  0  0  0  0  0
   -2.0661  -10.6994   18.1916 C   0  0  0  0  0  0  0  0  0  0  0  0
    5.2703   -7.5691   27.1123 C   0  0  0  0  0  0  0  0  0  0  0  0
    1.6204   -9.9887   17.2935 C   0  0  0  0  0  0  0  0  0  0  0  0
    1.8931   -7.9265   16.2047 C   0  0  0  0  0  0  0  0  0  0  0  0
    2.4396   -9.0801   16.7132 C   0  0  0  0  0  0  0  0  0  0  0  0
   -0.2575   -8.6234   16.8582 C   0  0  0  0  0  0  0  0  0  0  0  0
    4.0614   -7.0367   27.0106 N   0  0  0  0  0  0  0  0  0  0  0  0
   -2.9133  -11.6279   18.7578 C   0  0  0  0  0  0  0  0  0  0  0  0
    4.5688  -10.1291   29.5758 C   0  0  0  0  0  0  0  0  0  0  0  0
    2.1008   -9.0410   29.1852 N   0  0  0  0  0  0  0  0  0  0  0  0
    3.4829  -10.5697   30.2091 N   0  0  0  0  0  0  0  0  0  0  0  0
   -0.3363   -6.1172   27.5628 C   0  0  0  0  0  0  0  0  0  0  0  0
    3.0331   -7.4400   27.6362 C   0  0  0  0  0  0  0  0  0  0  0  0
    5.4553   -8.5933   27.9644 C   0  0  0  0  0  0  0  0  0  0  0  0
   -2.3870  -12.8440   19.2512 C   0  0  0  0  0  0  0  0  0  0  0  0
    0.5331   -7.6964   16.2751 C   0  0  0  0  0  0  0  0  0  0  0  0
   -0.6740  -10.8737   18.0482 C   0  0  0  0  0  0  0  0  0  0  0  0
    5.6751  -10.5870   29.7637 O   0  0  0  0  0  0  0  0  0  0  0  0
    1.7612   -5.6483   26.7172 C   0  0  0  0  0  0  0  0  0  0  0  0
    0.2221   -9.8326   17.4055 C   0  0  0  0  0  0  0  0  0  0  0  0
    4.3850   -9.0730   28.6745 C   0  0  0  0  0  0  0  0  0  0  0  0
  1  7  4  0
  1 22  4  0
  2 17  4  0
  2 20  4  0
  2 28  4  0
  3  6  1  0
  3 19  1  0
  4 19  1  0
  4 26  1  0
  5 17  4  0
  5 18  4  0
  6 20  1  0
  6 26  1  0
  7 24  4  0
  8 15  4  0
  8 24  4  0
  9 14  4  0
  9 21  4  0
 10 12  4  0
 10 27  4  0
 11 12  4  0
 11 23  4  0
 13 23  4  0
 13 27  4  0
 14 20  4  0
 15 22  4  0
 16 18  4  0
 16 25  2  0
 16 28  4  0
 21 28  4  0
 24 27  1  0
M  END
$$$$

 Created by Python create_sdf_string function

 28 31  0  0  0  0  0  0  0  0999 V2000
   -1.0054  -13.0622   19.1198 C   0  0  0  0  0  0  0  0  0  0  0  0
    3.1478   -8.5360   28.5161 C   0  0  0  0  0  0  0  0  0  0  0  0
    0.5798   -7.1906   27.9330 C   0  0  0  0  0  0  0  0  0  0  0  0
    0.3978   -5.1561   26.6955 C   0  0  0  0  0  0  0  0  0  0  0  0
    2.3063  -10.0533   30.0125 C   0  0  0  0  0  0  0  0  0  0  0  0
    1.8591   -6.8254   27.4685 N   0  0  0  0  0  0  0  0  0  0  0  0
   -0.2167  -12.1055   18.5568 C   0  0  0  0  0  0  0  0  0  0  0  0
   -2.0661  -10.6994   18.1916 C   0  0  0  0  0  0  0  0  0  0  0  0
    5.2703   -7.5691   27.1123 C   0  0  0  0  0  0  0  0  0  0  0  0
    1.6204   -9.9887   17.2935 C   0  0  0  0  0  0  0  0  0  0  0  0
    1.8931   -7.9265   16.2047 C   0  0  0  0  0  0  0  0  0  0  0  0
    2.4396   -9.0801   16.7132 C   0  0  0  0  0  0  0  0  0  0  0  0
   -0.2575   -8.6234   16.8582 C   0  0  0  0  0  0  0  0  0  0  0  0
    4.0614   -7.0367   27.0106 N   0  0  0  0  0  0  0  0  0  0  0  0
   -2.9133  -11.6279   18.7578 C   0  0  0  0  0  0  0  0  0  0  0  0
    4.5688  -10.1291   29.5758 C   0  0  0  0  0  0  0  0  0  0  0  0
    2.1008   -9.0410   29.1852 N   0  0  0  0  0  0  0  0  0  0  0  0
    3.4829  -10.5697   30.2091 N   0  0  0  0  0  0  0  0  0  0  0  0
   -0.3363   -6.1172   27.5628 C   0  0  0  0  0  0  0  0  0  0  0  0
    3.0331   -7.4400   27.6362 C   0  0  0  0  0  0  0  0  0  0  0  0
    5.4553   -8.5933   27.9644 C   0  0  0  0  0  0  0  0  0  0  0  0
   -2.3870  -12.8440   19.2512 C   0  0  0  0  0  0  0  0  0  0  0  0
    0.5331   -7.6964   16.2751 C   0  0  0  0  0  0  0  0  0  0  0  0
   -0.6740  -10.8737   18.0482 C   0  0  0  0  0  0  0  0  0  0  0  0
    5.6751  -10.5870   29.7637 O   0  0  0  0  0  0  0  0  0  0  0  0
    1.7612   -5.6483   26.7172 C   0  0  0  0  0  0  0  0  0  0  0  0
    0.2221   -9.8326   17.4055 C   0  0  0  0  0  0  0  0  0  0  0  0
    4.3850   -9.0730   28.6745 C   0  0  0  0  0  0  0  0  0  0  0  0
  1  7  4  0
  1 22  4  0
  2 17  4  0
  2 20  4  0
  2 28  4  0
  3  6  1  0
  3 19  1  0
  4 19  1  0
  4 26  1  0
  5 17  4  0
  5 18  4  0
  6 20  1  0
  6 26  1  0
  7 24  4  0
  8 15  4  0
  8 24  4  0
  9 14  4  0
  9 21  4  0
 10 12  4  0
 10 27  4  0
 11 12  4  0
 11 23  4  0
 13 23  4  0
 13 27  4  0
 14 20  4  0
 15 22  4  0
 16 18  4  0
 16 25  2  0
 16 28  4  0
 21 28  4  0
 24 27  1  0
M  END
$$$$

 Created by Python create_sdf_string function

 28 31  0  0  0  0  0  0  0  0999 V2000
   -1.0054  -13.0622   19.1198 C   0  0  0  0  0  0  0  0  0  0  0  0
    3.1478   -8.5360   28.5161 C   0  0  0  0  0  0  0  0  0  0  0  0
    0.5798   -7.1906   27.9330 C   0  0  0  0  0  0  0  0  0  0  0  0
    0.3978   -5.1561   26.6955 C   0  0  0  0  0  0  0  0  0  0  0  0
    2.3063  -10.0533   30.0125 C   0  0  0  0  0  0  0  0  0  0  0  0
    1.8591   -6.8254   27.4685 N   0  0  0  0  0  0  0  0  0  0  0  0
   -0.2167  -12.1055   18.5568 C   0  0  0  0  0  0  0  0  0  0  0  0
   -2.0661  -10.6994   18.1916 C   0  0  0  0  0  0  0  0  0  0  0  0
    5.2703   -7.5691   27.1123 C   0  0  0  0  0  0  0  0  0  0  0  0
    1.6204   -9.9887   17.2935 C   0  0  0  0  0  0  0  0  0  0  0  0
    1.8931   -7.9265   16.2047 C   0  0  0  0  0  0  0  0  0  0  0  0
    2.4396   -9.0801   16.7132 C   0  0  0  0  0  0  0  0  0  0  0  0
   -0.2575   -8.6234   16.8582 C   0  0  0  0  0  0  0  0  0  0  0  0
    4.0614   -7.0367   27.0106 N   0  0  0  0  0  0  0  0  0  0  0  0
   -2.9133  -11.6279   18.7578 C   0  0  0  0  0  0  0  0  0  0  0  0
    4.5688  -10.1291   29.5758 C   0  0  0  0  0  0  0  0  0  0  0  0
    2.1008   -9.0410   29.1852 N   0  0  0  0  0  0  0  0  0  0  0  0
    3.4829  -10.5697   30.2091 N   0  0  0  0  0  0  0  0  0  0  0  0
   -0.3363   -6.1172   27.5628 C   0  0  0  0  0  0  0  0  0  0  0  0
    3.0331   -7.4400   27.6362 C   0  0  0  0  0  0  0  0  0  0  0  0
    5.4553   -8.5933   27.9644 C   0  0  0  0  0  0  0  0  0  0  0  0
   -2.3870  -12.8440   19.2512 C   0  0  0  0  0  0  0  0  0  0  0  0
    0.5331   -7.6964   16.2751 C   0  0  0  0  0  0  0  0  0  0  0  0
   -0.6740  -10.8737   18.0482 C   0  0  0  0  0  0  0  0  0  0  0  0
    5.6751  -10.5870   29.7637 O   0  0  0  0  0  0  0  0  0  0  0  0
    1.7612   -5.6483   26.7172 C   0  0  0  0  0  0  0  0  0  0  0  0
    0.2221   -9.8326   17.4055 C   0  0  0  0  0  0  0  0  0  0  0  0
    4.3850   -9.0730   28.6745 C   0  0  0  0  0  0  0  0  0  0  0  0
  1  7  4  0
  1 22  4  0
  2 17  4  0
  2 20  4  0
  2 28  4  0
  3  6  1  0
  3 19  1  0
  4 19  1  0
  4 26  1  0
  5 17  4  0
  5 18  4  0
  6 20  1  0
  6 26  1  0
  7 24  4  0
  8 15  4  0
  8 24  4  0
  9 14  4  0
  9 21  4  0
 10 12  4  0
 10 27  4  0
 11 12  4  0
 11 23  4  0
 13 23  4  0
 13 27  4  0
 14 20  4  0
 15 22  4  0
 16 18  4  0
 16 25  2  0
 16 28  4  0
 21 28  4  0
 24 27  1  0
M  END
$$$$

 Created by Python create_sdf_string function

 28 31  0  0  0  0  0  0  0  0999 V2000
   -1.0054  -13.0622   19.1198 C   0  0  0  0  0  0  0  0  0  0  0  0
    3.1478   -8.5360   28.5161 C   0  0  0  0  0  0  0  0  0  0  0  0
    0.5798   -7.1906   27.9330 C   0  0  0  0  0  0  0  0  0  0  0  0
    0.3978   -5.1561   26.6955 C   0  0  0  0  0  0  0  0  0  0  0  0
    2.3063  -10.0533   30.0125 C   0  0  0  0  0  0  0  0  0  0  0  0
    1.8591   -6.8254   27.4685 N   0  0  0  0  0  0  0  0  0  0  0  0
   -0.2167  -12.1055   18.5568 C   0  0  0  0  0  0  0  0  0  0  0  0
   -2.0661  -10.6994   18.1916 C   0  0  0  0  0  0  0  0  0  0  0  0
    5.2703   -7.5691   27.1123 C   0  0  0  0  0  0  0  0  0  0  0  0
    1.6204   -9.9887   17.2935 C   0  0  0  0  0  0  0  0  0  0  0  0
    1.8931   -7.9265   16.2047 C   0  0  0  0  0  0  0  0  0  0  0  0
    2.4396   -9.0801   16.7132 C   0  0  0  0  0  0  0  0  0  0  0  0
   -0.2575   -8.6234   16.8582 C   0  0  0  0  0  0  0  0  0  0  0  0
    4.0614   -7.0367   27.0106 N   0  0  0  0  0  0  0  0  0  0  0  0
   -2.9133  -11.6279   18.7578 C   0  0  0  0  0  0  0  0  0  0  0  0
    4.5688  -10.1291   29.5758 C   0  0  0  0  0  0  0  0  0  0  0  0
    2.1008   -9.0410   29.1852 N   0  0  0  0  0  0  0  0  0  0  0  0
    3.4829  -10.5697   30.2091 N   0  0  0  0  0  0  0  0  0  0  0  0
   -0.3363   -6.1172   27.5628 C   0  0  0  0  0  0  0  0  0  0  0  0
    3.0331   -7.4400   27.6362 C   0  0  0  0  0  0  0  0  0  0  0  0
    5.4553   -8.5933   27.9644 C   0  0  0  0  0  0  0  0  0  0  0  0
   -2.3870  -12.8440   19.2512 C   0  0  0  0  0  0  0  0  0  0  0  0
    0.5331   -7.6964   16.2751 C   0  0  0  0  0  0  0  0  0  0  0  0
   -0.6740  -10.8737   18.0482 C   0  0  0  0  0  0  0  0  0  0  0  0
    5.6751  -10.5870   29.7637 O   0  0  0  0  0  0  0  0  0  0  0  0
    1.7612   -5.6483   26.7172 C   0  0  0  0  0  0  0  0  0  0  0  0
    0.2221   -9.8326   17.4055 C   0  0  0  0  0  0  0  0  0  0  0  0
    4.3850   -9.0730   28.6745 C   0  0  0  0  0  0  0  0  0  0  0  0
  1  7  4  0
  1 22  4  0
  2 17  4  0
  2 20  4  0
  2 28  4  0
  3  6  1  0
  3 19  1  0
  4 19  1  0
  4 26  1  0
  5 17  4  0
  5 18  4  0
  6 20  1  0
  6 26  1  0
  7 24  4  0
  8 15  4  0
  8 24  4  0
  9 14  4  0
  9 21  4  0
 10 12  4  0
 10 27  4  0
 11 12  4  0
 11 23  4  0
 13 23  4  0
 13 27  4  0
 14 20  4  0
 15 22  4  0
 16 18  4  0
 16 25  2  0
 16 28  4  0
 21 28  4  0
 24 27  1  0
M  END
$$$$

 Created by Python create_sdf_string function

 28 31  0  0  0  0  0  0  0  0999 V2000
   -1.0054  -13.0622   19.1198 C   0  0  0  0  0  0  0  0  0  0  0  0
    3.1478   -8.5360   28.5161 C   0  0  0  0  0  0  0  0  0  0  0  0
    0.5798   -7.1906   27.9330 C   0  0  0  0  0  0  0  0  0  0  0  0
    0.3978   -5.1561   26.6955 C   0  0  0  0  0  0  0  0  0  0  0  0
    2.3063  -10.0533   30.0125 C   0  0  0  0  0  0  0  0  0  0  0  0
    1.8591   -6.8254   27.4685 N   0  0  0  0  0  0  0  0  0  0  0  0
   -0.2167  -12.1055   18.5568 C   0  0  0  0  0  0  0  0  0  0  0  0
   -2.0661  -10.6994   18.1916 C   0  0  0  0  0  0  0  0  0  0  0  0
    5.2703   -7.5691   27.1123 C   0  0  0  0  0  0  0  0  0  0  0  0
    1.6204   -9.9887   17.2935 C   0  0  0  0  0  0  0  0  0  0  0  0
    1.8931   -7.9265   16.2047 C   0  0  0  0  0  0  0  0  0  0  0  0
    2.4396   -9.0801   16.7132 C   0  0  0  0  0  0  0  0  0  0  0  0
   -0.2575   -8.6234   16.8582 C   0  0  0  0  0  0  0  0  0  0  0  0
    4.0614   -7.0367   27.0106 N   0  0  0  0  0  0  0  0  0  0  0  0
   -2.9133  -11.6279   18.7578 C   0  0  0  0  0  0  0  0  0  0  0  0
    4.5688  -10.1291   29.5758 C   0  0  0  0  0  0  0  0  0  0  0  0
    2.1008   -9.0410   29.1852 N   0  0  0  0  0  0  0  0  0  0  0  0
    3.4829  -10.5697   30.2091 N   0  0  0  0  0  0  0  0  0  0  0  0
   -0.3363   -6.1172   27.5628 C   0  0  0  0  0  0  0  0  0  0  0  0
    3.0331   -7.4400   27.6362 C   0  0  0  0  0  0  0  0  0  0  0  0
    5.4553   -8.5933   27.9644 C   0  0  0  0  0  0  0  0  0  0  0  0
   -2.3870  -12.8440   19.2512 C   0  0  0  0  0  0  0  0  0  0  0  0
    0.5331   -7.6964   16.2751 C   0  0  0  0  0  0  0  0  0  0  0  0
   -0.6740  -10.8737   18.0482 C   0  0  0  0  0  0  0  0  0  0  0  0
    5.6751  -10.5870   29.7637 O   0  0  0  0  0  0  0  0  0  0  0  0
    1.7612   -5.6483   26.7172 C   0  0  0  0  0  0  0  0  0  0  0  0
    0.2221   -9.8326   17.4055 C   0  0  0  0  0  0  0  0  0  0  0  0
    4.3850   -9.0730   28.6745 C   0  0  0  0  0  0  0  0  0  0  0  0
  1  7  4  0
  1 22  4  0
  2 17  4  0
  2 20  4  0
  2 28  4  0
  3  6  1  0
  3 19  1  0
  4 19  1  0
  4 26  1  0
  5 17  4  0
  5 18  4  0
  6 20  1  0
  6 26  1  0
  7 24  4  0
  8 15  4  0
  8 24  4  0
  9 14  4  0
  9 21  4  0
 10 12  4  0
 10 27  4  0
 11 12  4  0
 11 23  4  0
 13 23  4  0
 13 27  4  0
 14 20  4  0
 15 22  4  0
 16 18  4  0
 16 25  2  0
 16 28  4  0
 21 28  4  0
 24 27  1  0
M  END
$$$$

 Created by Python create_sdf_string function

 28 31  0  0  0  0  0  0  0  0999 V2000
   -1.0054  -13.0622   19.1198 C   0  0  0  0  0  0  0  0  0  0  0  0
    3.1478   -8.5360   28.5161 C   0  0  0  0  0  0  0  0  0  0  0  0
    0.5798   -7.1906   27.9330 C   0  0  0  0  0  0  0  0  0  0  0  0
    0.3978   -5.1561   26.6955 C   0  0  0  0  0  0  0  0  0  0  0  0
    2.3063  -10.0533   30.0125 C   0  0  0  0  0  0  0  0  0  0  0  0
    1.8591   -6.8254   27.4685 N   0  0  0  0  0  0  0  0  0  0  0  0
   -0.2167  -12.1055   18.5568 C   0  0  0  0  0  0  0  0  0  0  0  0
   -2.0661  -10.6994   18.1916 C   0  0  0  0  0  0  0  0  0  0  0  0
    5.2703   -7.5691   27.1123 C   0  0  0  0  0  0  0  0  0  0  0  0
    1.6204   -9.9887   17.2935 C   0  0  0  0  0  0  0  0  0  0  0  0
    1.8931   -7.9265   16.2047 C   0  0  0  0  0  0  0  0  0  0  0  0
    2.4396   -9.0801   16.7132 C   0  0  0  0  0  0  0  0  0  0  0  0
   -0.2575   -8.6234   16.8582 C   0  0  0  0  0  0  0  0  0  0  0  0
    4.0614   -7.0367   27.0106 N   0  0  0  0  0  0  0  0  0  0  0  0
   -2.9133  -11.6279   18.7578 C   0  0  0  0  0  0  0  0  0  0  0  0
    4.5688  -10.1291   29.5758 C   0  0  0  0  0  0  0  0  0  0  0  0
    2.1008   -9.0410   29.1852 N   0  0  0  0  0  0  0  0  0  0  0  0
    3.4829  -10.5697   30.2091 N   0  0  0  0  0  0  0  0  0  0  0  0
   -0.3363   -6.1172   27.5628 C   0  0  0  0  0  0  0  0  0  0  0  0
    3.0331   -7.4400   27.6362 C   0  0  0  0  0  0  0  0  0  0  0  0
    5.4553   -8.5933   27.9644 C   0  0  0  0  0  0  0  0  0  0  0  0
   -2.3870  -12.8440   19.2512 C   0  0  0  0  0  0  0  0  0  0  0  0
    0.5331   -7.6964   16.2751 C   0  0  0  0  0  0  0  0  0  0  0  0
   -0.6740  -10.8737   18.0482 C   0  0  0  0  0  0  0  0  0  0  0  0
    5.6751  -10.5870   29.7637 O   0  0  0  0  0  0  0  0  0  0  0  0
    1.7612   -5.6483   26.7172 C   0  0  0  0  0  0  0  0  0  0  0  0
    0.2221   -9.8326   17.4055 C   0  0  0  0  0  0  0  0  0  0  0  0
    4.3850   -9.0730   28.6745 C   0  0  0  0  0  0  0  0  0  0  0  0
  1  7  4  0
  1 22  4  0
  2 17  4  0
  2 20  4  0
  2 28  4  0
  3  6  1  0
  3 19  1  0
  4 19  1  0
  4 26  1  0
  5 17  4  0
  5 18  4  0
  6 20  1  0
  6 26  1  0
  7 24  4  0
  8 15  4  0
  8 24  4  0
  9 14  4  0
  9 21  4  0
 10 12  4  0
 10 27  4  0
 11 12  4  0
 11 23  4  0
 13 23  4  0
 13 27  4  0
 14 20  4  0
 15 22  4  0
 16 18  4  0
 16 25  2  0
 16 28  4  0
 21 28  4  0
 24 27  1  0
M  END
$$$$

 Created by Python create_sdf_string function

 28 31  0  0  0  0  0  0  0  0999 V2000
   -1.0054  -13.0622   19.1198 C   0  0  0  0  0  0  0  0  0  0  0  0
    3.1478   -8.5360   28.5161 C   0  0  0  0  0  0  0  0  0  0  0  0
    0.5798   -7.1906   27.9330 C   0  0  0  0  0  0  0  0  0  0  0  0
    0.3978   -5.1561   26.6955 C   0  0  0  0  0  0  0  0  0  0  0  0
    2.3063  -10.0533   30.0125 C   0  0  0  0  0  0  0  0  0  0  0  0
    1.8591   -6.8254   27.4685 N   0  0  0  0  0  0  0  0  0  0  0  0
   -0.2167  -12.1055   18.5568 C   0  0  0  0  0  0  0  0  0  0  0  0
   -2.0661  -10.6994   18.1916 C   0  0  0  0  0  0  0  0  0  0  0  0
    5.2703   -7.5691   27.1123 C   0  0  0  0  0  0  0  0  0  0  0  0
    1.6204   -9.9887   17.2935 C   0  0  0  0  0  0  0  0  0  0  0  0
    1.8931   -7.9265   16.2047 C   0  0  0  0  0  0  0  0  0  0  0  0
    2.4396   -9.0801   16.7132 C   0  0  0  0  0  0  0  0  0  0  0  0
   -0.2575   -8.6234   16.8582 C   0  0  0  0  0  0  0  0  0  0  0  0
    4.0614   -7.0367   27.0106 N   0  0  0  0  0  0  0  0  0  0  0  0
   -2.9133  -11.6279   18.7578 C   0  0  0  0  0  0  0  0  0  0  0  0
    4.5688  -10.1291   29.5758 C   0  0  0  0  0  0  0  0  0  0  0  0
    2.1008   -9.0410   29.1852 N   0  0  0  0  0  0  0  0  0  0  0  0
    3.4829  -10.5697   30.2091 N   0  0  0  0  0  0  0  0  0  0  0  0
   -0.3363   -6.1172   27.5628 C   0  0  0  0  0  0  0  0  0  0  0  0
    3.0331   -7.4400   27.6362 C   0  0  0  0  0  0  0  0  0  0  0  0
    5.4553   -8.5933   27.9644 C   0  0  0  0  0  0  0  0  0  0  0  0
   -2.3870  -12.8440   19.2512 C   0  0  0  0  0  0  0  0  0  0  0  0
    0.5331   -7.6964   16.2751 C   0  0  0  0  0  0  0  0  0  0  0  0
   -0.6740  -10.8737   18.0482 C   0  0  0  0  0  0  0  0  0  0  0  0
    5.6751  -10.5870   29.7637 O   0  0  0  0  0  0  0  0  0  0  0  0
    1.7612   -5.6483   26.7172 C   0  0  0  0  0  0  0  0  0  0  0  0
    0.2221   -9.8326   17.4055 C   0  0  0  0  0  0  0  0  0  0  0  0
    4.3850   -9.0730   28.6745 C   0  0  0  0  0  0  0  0  0  0  0  0
  1  7  4  0
  1 22  4  0
  2 17  4  0
  2 20  4  0
  2 28  4  0
  3  6  1  0
  3 19  1  0
  4 19  1  0
  4 26  1  0
  5 17  4  0
  5 18  4  0
  6 20  1  0
  6 26  1  0
  7 24  4  0
  8 15  4  0
  8 24  4  0
  9 14  4  0
  9 21  4  0
 10 12  4  0
 10 27  4  0
 11 12  4  0
 11 23  4  0
 13 23  4  0
 13 27  4  0
 14 20  4  0
 15 22  4  0
 16 18  4  0
 16 25  2  0
 16 28  4  0
 21 28  4  0
 24 27  1  0
M  END
$$$$

 Created by Python create_sdf_string function

 28 31  0  0  0  0  0  0  0  0999 V2000
   -1.0054  -13.0622   19.1198 C   0  0  0  0  0  0  0  0  0  0  0  0
    3.1478   -8.5360   28.5161 C   0  0  0  0  0  0  0  0  0  0  0  0
    0.5798   -7.1906   27.9330 C   0  0  0  0  0  0  0  0  0  0  0  0
    0.3978   -5.1561   26.6955 C   0  0  0  0  0  0  0  0  0  0  0  0
    2.3063  -10.0533   30.0125 C   0  0  0  0  0  0  0  0  0  0  0  0
    1.8591   -6.8254   27.4685 N   0  0  0  0  0  0  0  0  0  0  0  0
   -0.2167  -12.1055   18.5568 C   0  0  0  0  0  0  0  0  0  0  0  0
   -2.0661  -10.6994   18.1916 C   0  0  0  0  0  0  0  0  0  0  0  0
    5.2703   -7.5691   27.1123 C   0  0  0  0  0  0  0  0  0  0  0  0
    1.6204   -9.9887   17.2935 C   0  0  0  0  0  0  0  0  0  0  0  0
    1.8931   -7.9265   16.2047 C   0  0  0  0  0  0  0  0  0  0  0  0
    2.4396   -9.0801   16.7132 C   0  0  0  0  0  0  0  0  0  0  0  0
   -0.2575   -8.6234   16.8582 C   0  0  0  0  0  0  0  0  0  0  0  0
    4.0614   -7.0367   27.0106 N   0  0  0  0  0  0  0  0  0  0  0  0
   -2.9133  -11.6279   18.7578 C   0  0  0  0  0  0  0  0  0  0  0  0
    4.5688  -10.1291   29.5758 C   0  0  0  0  0  0  0  0  0  0  0  0
    2.1008   -9.0410   29.1852 N   0  0  0  0  0  0  0  0  0  0  0  0
    3.4829  -10.5697   30.2091 N   0  0  0  0  0  0  0  0  0  0  0  0
   -0.3363   -6.1172   27.5628 C   0  0  0  0  0  0  0  0  0  0  0  0
    3.0331   -7.4400   27.6362 C   0  0  0  0  0  0  0  0  0  0  0  0
    5.4553   -8.5933   27.9644 C   0  0  0  0  0  0  0  0  0  0  0  0
   -2.3870  -12.8440   19.2512 C   0  0  0  0  0  0  0  0  0  0  0  0
    0.5331   -7.6964   16.2751 C   0  0  0  0  0  0  0  0  0  0  0  0
   -0.6740  -10.8737   18.0482 C   0  0  0  0  0  0  0  0  0  0  0  0
    5.6751  -10.5870   29.7637 O   0  0  0  0  0  0  0  0  0  0  0  0
    1.7612   -5.6483   26.7172 C   0  0  0  0  0  0  0  0  0  0  0  0
    0.2221   -9.8326   17.4055 C   0  0  0  0  0  0  0  0  0  0  0  0
    4.3850   -9.0730   28.6745 C   0  0  0  0  0  0  0  0  0  0  0  0
  1  7  4  0
  1 22  4  0
  2 17  4  0
  2 20  4  0
  2 28  4  0
  3  6  1  0
  3 19  1  0
  4 19  1  0
  4 26  1  0
  5 17  4  0
  5 18  4  0
  6 20  1  0
  6 26  1  0
  7 24  4  0
  8 15  4  0
  8 24  4  0
  9 14  4  0
  9 21  4  0
 10 12  4  0
 10 27  4  0
 11 12  4  0
 11 23  4  0
 13 23  4  0
 13 27  4  0
 14 20  4  0
 15 22  4  0
 16 18  4  0
 16 25  2  0
 16 28  4  0
 21 28  4  0
 24 27  1  0
M  END
$$$$

 Created by Python create_sdf_string function

 28 31  0  0  0  0  0  0  0  0999 V2000
   -1.0054  -13.0622   19.1198 C   0  0  0  0  0  0  0  0  0  0  0  0
    3.1478   -8.5360   28.5161 C   0  0  0  0  0  0  0  0  0  0  0  0
    0.5798   -7.1906   27.9330 C   0  0  0  0  0  0  0  0  0  0  0  0
    0.3978   -5.1561   26.6955 C   0  0  0  0  0  0  0  0  0  0  0  0
    2.3063  -10.0533   30.0125 C   0  0  0  0  0  0  0  0  0  0  0  0
    1.8591   -6.8254   27.4685 N   0  0  0  0  0  0  0  0  0  0  0  0
   -0.2167  -12.1055   18.5568 C   0  0  0  0  0  0  0  0  0  0  0  0
   -2.0661  -10.6994   18.1916 C   0  0  0  0  0  0  0  0  0  0  0  0
    5.2703   -7.5691   27.1123 C   0  0  0  0  0  0  0  0  0  0  0  0
    1.6204   -9.9887   17.2935 C   0  0  0  0  0  0  0  0  0  0  0  0
    1.8931   -7.9265   16.2047 C   0  0  0  0  0  0  0  0  0  0  0  0
    2.4396   -9.0801   16.7132 C   0  0  0  0  0  0  0  0  0  0  0  0
   -0.2575   -8.6234   16.8582 C   0  0  0  0  0  0  0  0  0  0  0  0
    4.0614   -7.0367   27.0106 N   0  0  0  0  0  0  0  0  0  0  0  0
   -2.9133  -11.6279   18.7578 C   0  0  0  0  0  0  0  0  0  0  0  0
    4.5688  -10.1291   29.5758 C   0  0  0  0  0  0  0  0  0  0  0  0
    2.1008   -9.0410   29.1852 N   0  0  0  0  0  0  0  0  0  0  0  0
    3.4829  -10.5697   30.2091 N   0  0  0  0  0  0  0  0  0  0  0  0
   -0.3363   -6.1172   27.5628 C   0  0  0  0  0  0  0  0  0  0  0  0
    3.0331   -7.4400   27.6362 C   0  0  0  0  0  0  0  0  0  0  0  0
    5.4553   -8.5933   27.9644 C   0  0  0  0  0  0  0  0  0  0  0  0
   -2.3870  -12.8440   19.2512 C   0  0  0  0  0  0  0  0  0  0  0  0
    0.5331   -7.6964   16.2751 C   0  0  0  0  0  0  0  0  0  0  0  0
   -0.6740  -10.8737   18.0482 C   0  0  0  0  0  0  0  0  0  0  0  0
    5.6751  -10.5870   29.7637 O   0  0  0  0  0  0  0  0  0  0  0  0
    1.7612   -5.6483   26.7172 C   0  0  0  0  0  0  0  0  0  0  0  0
    0.2221   -9.8326   17.4055 C   0  0  0  0  0  0  0  0  0  0  0  0
    4.3850   -9.0730   28.6745 C   0  0  0  0  0  0  0  0  0  0  0  0
  1  7  4  0
  1 22  4  0
  2 17  4  0
  2 20  4  0
  2 28  4  0
  3  6  1  0
  3 19  1  0
  4 19  1  0
  4 26  1  0
  5 17  4  0
  5 18  4  0
  6 20  1  0
  6 26  1  0
  7 24  4  0
  8 15  4  0
  8 24  4  0
  9 14  4  0
  9 21  4  0
 10 12  4  0
 10 27  4  0
 11 12  4  0
 11 23  4  0
 13 23  4  0
 13 27  4  0
 14 20  4  0
 15 22  4  0
 16 18  4  0
 16 25  2  0
 16 28  4  0
 21 28  4  0
 24 27  1  0
M  END
$$$$

 Created by Python create_sdf_string function

 28 31  0  0  0  0  0  0  0  0999 V2000
   -1.0054  -13.0622   19.1198 C   0  0  0  0  0  0  0  0  0  0  0  0
    3.1478   -8.5360   28.5161 C   0  0  0  0  0  0  0  0  0  0  0  0
    0.5798   -7.1906   27.9330 C   0  0  0  0  0  0  0  0  0  0  0  0
    0.3978   -5.1561   26.6955 C   0  0  0  0  0  0  0  0  0  0  0  0
    2.3063  -10.0533   30.0125 C   0  0  0  0  0  0  0  0  0  0  0  0
    1.8591   -6.8254   27.4685 N   0  0  0  0  0  0  0  0  0  0  0  0
   -0.2167  -12.1055   18.5568 C   0  0  0  0  0  0  0  0  0  0  0  0
   -2.0661  -10.6994   18.1916 C   0  0  0  0  0  0  0  0  0  0  0  0
    5.2703   -7.5691   27.1123 C   0  0  0  0  0  0  0  0  0  0  0  0
    1.6204   -9.9887   17.2935 C   0  0  0  0  0  0  0  0  0  0  0  0
    1.8931   -7.9265   16.2047 C   0  0  0  0  0  0  0  0  0  0  0  0
    2.4396   -9.0801   16.7132 C   0  0  0  0  0  0  0  0  0  0  0  0
   -0.2575   -8.6234   16.8582 C   0  0  0  0  0  0  0  0  0  0  0  0
    4.0614   -7.0367   27.0106 N   0  0  0  0  0  0  0  0  0  0  0  0
   -2.9133  -11.6279   18.7578 C   0  0  0  0  0  0  0  0  0  0  0  0
    4.5688  -10.1291   29.5758 C   0  0  0  0  0  0  0  0  0  0  0  0
    2.1008   -9.0410   29.1852 N   0  0  0  0  0  0  0  0  0  0  0  0
    3.4829  -10.5697   30.2091 N   0  0  0  0  0  0  0  0  0  0  0  0
   -0.3363   -6.1172   27.5628 C   0  0  0  0  0  0  0  0  0  0  0  0
    3.0331   -7.4400   27.6362 C   0  0  0  0  0  0  0  0  0  0  0  0
    5.4553   -8.5933   27.9644 C   0  0  0  0  0  0  0  0  0  0  0  0
   -2.3870  -12.8440   19.2512 C   0  0  0  0  0  0  0  0  0  0  0  0
    0.5331   -7.6964   16.2751 C   0  0  0  0  0  0  0  0  0  0  0  0
   -0.6740  -10.8737   18.0482 C   0  0  0  0  0  0  0  0  0  0  0  0
    5.6751  -10.5870   29.7637 O   0  0  0  0  0  0  0  0  0  0  0  0
    1.7612   -5.6483   26.7172 C   0  0  0  0  0  0  0  0  0  0  0  0
    0.2221   -9.8326   17.4055 C   0  0  0  0  0  0  0  0  0  0  0  0
    4.3850   -9.0730   28.6745 C   0  0  0  0  0  0  0  0  0  0  0  0
  1  7  4  0
  1 22  4  0
  2 17  4  0
  2 20  4  0
  2 28  4  0
  3  6  1  0
  3 19  1  0
  4 19  1  0
  4 26  1  0
  5 17  4  0
  5 18  4  0
  6 20  1  0
  6 26  1  0
  7 24  4  0
  8 15  4  0
  8 24  4  0
  9 14  4  0
  9 21  4  0
 10 12  4  0
 10 27  4  0
 11 12  4  0
 11 23  4  0
 13 23  4  0
 13 27  4  0
 14 20  4  0
 15 22  4  0
 16 18  4  0
 16 25  2  0
 16 28  4  0
 21 28  4  0
 24 27  1  0
M  END
$$$$

 Created by Python create_sdf_string function

 28 31  0  0  0  0  0  0  0  0999 V2000
   -1.0054  -13.0622   19.1198 C   0  0  0  0  0  0  0  0  0  0  0  0
    3.1478   -8.5360   28.5161 C   0  0  0  0  0  0  0  0  0  0  0  0
    0.5798   -7.1906   27.9330 C   0  0  0  0  0  0  0  0  0  0  0  0
    0.3978   -5.1561   26.6955 C   0  0  0  0  0  0  0  0  0  0  0  0
    2.3063  -10.0533   30.0125 C   0  0  0  0  0  0  0  0  0  0  0  0
    1.8591   -6.8254   27.4685 N   0  0  0  0  0  0  0  0  0  0  0  0
   -0.2167  -12.1055   18.5568 C   0  0  0  0  0  0  0  0  0  0  0  0
   -2.0661  -10.6994   18.1916 C   0  0  0  0  0  0  0  0  0  0  0  0
    5.2703   -7.5691   27.1123 C   0  0  0  0  0  0  0  0  0  0  0  0
    1.6204   -9.9887   17.2935 C   0  0  0  0  0  0  0  0  0  0  0  0
    1.8931   -7.9265   16.2047 C   0  0  0  0  0  0  0  0  0  0  0  0
    2.4396   -9.0801   16.7132 C   0  0  0  0  0  0  0  0  0  0  0  0
   -0.2575   -8.6234   16.8582 C   0  0  0  0  0  0  0  0  0  0  0  0
    4.0614   -7.0367   27.0106 N   0  0  0  0  0  0  0  0  0  0  0  0
   -2.9133  -11.6279   18.7578 C   0  0  0  0  0  0  0  0  0  0  0  0
    4.5688  -10.1291   29.5758 C   0  0  0  0  0  0  0  0  0  0  0  0
    2.1008   -9.0410   29.1852 N   0  0  0  0  0  0  0  0  0  0  0  0
    3.4829  -10.5697   30.2091 N   0  0  0  0  0  0  0  0  0  0  0  0
   -0.3363   -6.1172   27.5628 C   0  0  0  0  0  0  0  0  0  0  0  0
    3.0331   -7.4400   27.6362 C   0  0  0  0  0  0  0  0  0  0  0  0
    5.4553   -8.5933   27.9644 C   0  0  0  0  0  0  0  0  0  0  0  0
   -2.3870  -12.8440   19.2512 C   0  0  0  0  0  0  0  0  0  0  0  0
    0.5331   -7.6964   16.2751 C   0  0  0  0  0  0  0  0  0  0  0  0
   -0.6740  -10.8737   18.0482 C   0  0  0  0  0  0  0  0  0  0  0  0
    5.6751  -10.5870   29.7637 O   0  0  0  0  0  0  0  0  0  0  0  0
    1.7612   -5.6483   26.7172 C   0  0  0  0  0  0  0  0  0  0  0  0
    0.2221   -9.8326   17.4055 C   0  0  0  0  0  0  0  0  0  0  0  0
    4.3850   -9.0730   28.6745 C   0  0  0  0  0  0  0  0  0  0  0  0
  1  7  4  0
  1 22  4  0
  2 17  4  0
  2 20  4  0
  2 28  4  0
  3  6  1  0
  3 19  1  0
  4 19  1  0
  4 26  1  0
  5 17  4  0
  5 18  4  0
  6 20  1  0
  6 26  1  0
  7 24  4  0
  8 15  4  0
  8 24  4  0
  9 14  4  0
  9 21  4  0
 10 12  4  0
 10 27  4  0
 11 12  4  0
 11 23  4  0
 13 23  4  0
 13 27  4  0
 14 20  4  0
 15 22  4  0
 16 18  4  0
 16 25  2  0
 16 28  4  0
 21 28  4  0
 24 27  1  0
M  END
$$$$

 Created by Python create_sdf_string function

 28 31  0  0  0  0  0  0  0  0999 V2000
   -1.0054  -13.0622   19.1198 C   0  0  0  0  0  0  0  0  0  0  0  0
    3.1478   -8.5360   28.5161 C   0  0  0  0  0  0  0  0  0  0  0  0
    0.5798   -7.1906   27.9330 C   0  0  0  0  0  0  0  0  0  0  0  0
    0.3978   -5.1561   26.6955 C   0  0  0  0  0  0  0  0  0  0  0  0
    2.3063  -10.0533   30.0125 C   0  0  0  0  0  0  0  0  0  0  0  0
    1.8591   -6.8254   27.4685 N   0  0  0  0  0  0  0  0  0  0  0  0
   -0.2167  -12.1055   18.5568 C   0  0  0  0  0  0  0  0  0  0  0  0
   -2.0661  -10.6994   18.1916 C   0  0  0  0  0  0  0  0  0  0  0  0
    5.2703   -7.5691   27.1123 C   0  0  0  0  0  0  0  0  0  0  0  0
    1.6204   -9.9887   17.2935 C   0  0  0  0  0  0  0  0  0  0  0  0
    1.8931   -7.9265   16.2047 C   0  0  0  0  0  0  0  0  0  0  0  0
    2.4396   -9.0801   16.7132 C   0  0  0  0  0  0  0  0  0  0  0  0
   -0.2575   -8.6234   16.8582 C   0  0  0  0  0  0  0  0  0  0  0  0
    4.0614   -7.0367   27.0106 N   0  0  0  0  0  0  0  0  0  0  0  0
   -2.9133  -11.6279   18.7578 C   0  0  0  0  0  0  0  0  0  0  0  0
    4.5688  -10.1291   29.5758 C   0  0  0  0  0  0  0  0  0  0  0  0
    2.1008   -9.0410   29.1852 N   0  0  0  0  0  0  0  0  0  0  0  0
    3.4829  -10.5697   30.2091 N   0  0  0  0  0  0  0  0  0  0  0  0
   -0.3363   -6.1172   27.5628 C   0  0  0  0  0  0  0  0  0  0  0  0
    3.0331   -7.4400   27.6362 C   0  0  0  0  0  0  0  0  0  0  0  0
    5.4553   -8.5933   27.9644 C   0  0  0  0  0  0  0  0  0  0  0  0
   -2.3870  -12.8440   19.2512 C   0  0  0  0  0  0  0  0  0  0  0  0
    0.5331   -7.6964   16.2751 C   0  0  0  0  0  0  0  0  0  0  0  0
   -0.6740  -10.8737   18.0482 C   0  0  0  0  0  0  0  0  0  0  0  0
    5.6751  -10.5870   29.7637 O   0  0  0  0  0  0  0  0  0  0  0  0
    1.7612   -5.6483   26.7172 C   0  0  0  0  0  0  0  0  0  0  0  0
    0.2221   -9.8326   17.4055 C   0  0  0  0  0  0  0  0  0  0  0  0
    4.3850   -9.0730   28.6745 C   0  0  0  0  0  0  0  0  0  0  0  0
  1  7  4  0
  1 22  4  0
  2 17  4  0
  2 20  4  0
  2 28  4  0
  3  6  1  0
  3 19  1  0
  4 19  1  0
  4 26  1  0
  5 17  4  0
  5 18  4  0
  6 20  1  0
  6 26  1  0
  7 24  4  0
  8 15  4  0
  8 24  4  0
  9 14  4  0
  9 21  4  0
 10 12  4  0
 10 27  4  0
 11 12  4  0
 11 23  4  0
 13 23  4  0
 13 27  4  0
 14 20  4  0
 15 22  4  0
 16 18  4  0
 16 25  2  0
 16 28  4  0
 21 28  4  0
 24 27  1  0
M  END
$$$$

 Created by Python create_sdf_string function

 28 31  0  0  0  0  0  0  0  0999 V2000
   -1.0054  -13.0622   19.1198 C   0  0  0  0  0  0  0  0  0  0  0  0
    3.1478   -8.5360   28.5161 C   0  0  0  0  0  0  0  0  0  0  0  0
    0.5798   -7.1906   27.9330 C   0  0  0  0  0  0  0  0  0  0  0  0
    0.3978   -5.1561   26.6955 C   0  0  0  0  0  0  0  0  0  0  0  0
    2.3063  -10.0533   30.0125 C   0  0  0  0  0  0  0  0  0  0  0  0
    1.8591   -6.8254   27.4685 N   0  0  0  0  0  0  0  0  0  0  0  0
   -0.2167  -12.1055   18.5568 C   0  0  0  0  0  0  0  0  0  0  0  0
   -2.0661  -10.6994   18.1916 C   0  0  0  0  0  0  0  0  0  0  0  0
    5.2703   -7.5691   27.1123 C   0  0  0  0  0  0  0  0  0  0  0  0
    1.6204   -9.9887   17.2935 C   0  0  0  0  0  0  0  0  0  0  0  0
    1.8931   -7.9265   16.2047 C   0  0  0  0  0  0  0  0  0  0  0  0
    2.4396   -9.0801   16.7132 C   0  0  0  0  0  0  0  0  0  0  0  0
   -0.2575   -8.6234   16.8582 C   0  0  0  0  0  0  0  0  0  0  0  0
    4.0614   -7.0367   27.0106 N   0  0  0  0  0  0  0  0  0  0  0  0
   -2.9133  -11.6279   18.7578 C   0  0  0  0  0  0  0  0  0  0  0  0
    4.5688  -10.1291   29.5758 C   0  0  0  0  0  0  0  0  0  0  0  0
    2.1008   -9.0410   29.1852 N   0  0  0  0  0  0  0  0  0  0  0  0
    3.4829  -10.5697   30.2091 N   0  0  0  0  0  0  0  0  0  0  0  0
   -0.3363   -6.1172   27.5628 C   0  0  0  0  0  0  0  0  0  0  0  0
    3.0331   -7.4400   27.6362 C   0  0  0  0  0  0  0  0  0  0  0  0
    5.4553   -8.5933   27.9644 C   0  0  0  0  0  0  0  0  0  0  0  0
   -2.3870  -12.8440   19.2512 C   0  0  0  0  0  0  0  0  0  0  0  0
    0.5331   -7.6964   16.2751 C   0  0  0  0  0  0  0  0  0  0  0  0
   -0.6740  -10.8737   18.0482 C   0  0  0  0  0  0  0  0  0  0  0  0
    5.6751  -10.5870   29.7637 O   0  0  0  0  0  0  0  0  0  0  0  0
    1.7612   -5.6483   26.7172 C   0  0  0  0  0  0  0  0  0  0  0  0
    0.2221   -9.8326   17.4055 C   0  0  0  0  0  0  0  0  0  0  0  0
    4.3850   -9.0730   28.6745 C   0  0  0  0  0  0  0  0  0  0  0  0
  1  7  4  0
  1 22  4  0
  2 17  4  0
  2 20  4  0
  2 28  4  0
  3  6  1  0
  3 19  1  0
  4 19  1  0
  4 26  1  0
  5 17  4  0
  5 18  4  0
  6 20  1  0
  6 26  1  0
  7 24  4  0
  8 15  4  0
  8 24  4  0
  9 14  4  0
  9 21  4  0
 10 12  4  0
 10 27  4  0
 11 12  4  0
 11 23  4  0
 13 23  4  0
 13 27  4  0
 14 20  4  0
 15 22  4  0
 16 18  4  0
 16 25  2  0
 16 28  4  0
 21 28  4  0
 24 27  1  0
M  END
$$$$

 Created by Python create_sdf_string function

 28 31  0  0  0  0  0  0  0  0999 V2000
   -1.0054  -13.0622   19.1198 C   0  0  0  0  0  0  0  0  0  0  0  0
    3.1478   -8.5360   28.5161 C   0  0  0  0  0  0  0  0  0  0  0  0
    0.5798   -7.1906   27.9330 C   0  0  0  0  0  0  0  0  0  0  0  0
    0.3978   -5.1561   26.6955 C   0  0  0  0  0  0  0  0  0  0  0  0
    2.3063  -10.0533   30.0125 C   0  0  0  0  0  0  0  0  0  0  0  0
    1.8591   -6.8254   27.4685 N   0  0  0  0  0  0  0  0  0  0  0  0
   -0.2167  -12.1055   18.5568 C   0  0  0  0  0  0  0  0  0  0  0  0
   -2.0661  -10.6994   18.1916 C   0  0  0  0  0  0  0  0  0  0  0  0
    5.2703   -7.5691   27.1123 C   0  0  0  0  0  0  0  0  0  0  0  0
    1.6204   -9.9887   17.2935 C   0  0  0  0  0  0  0  0  0  0  0  0
    1.8931   -7.9265   16.2047 C   0  0  0  0  0  0  0  0  0  0  0  0
    2.4396   -9.0801   16.7132 C   0  0  0  0  0  0  0  0  0  0  0  0
   -0.2575   -8.6234   16.8582 C   0  0  0  0  0  0  0  0  0  0  0  0
    4.0614   -7.0367   27.0106 N   0  0  0  0  0  0  0  0  0  0  0  0
   -2.9133  -11.6279   18.7578 C   0  0  0  0  0  0  0  0  0  0  0  0
    4.5688  -10.1291   29.5758 C   0  0  0  0  0  0  0  0  0  0  0  0
    2.1008   -9.0410   29.1852 N   0  0  0  0  0  0  0  0  0  0  0  0
    3.4829  -10.5697   30.2091 N   0  0  0  0  0  0  0  0  0  0  0  0
   -0.3363   -6.1172   27.5628 C   0  0  0  0  0  0  0  0  0  0  0  0
    3.0331   -7.4400   27.6362 C   0  0  0  0  0  0  0  0  0  0  0  0
    5.4553   -8.5933   27.9644 C   0  0  0  0  0  0  0  0  0  0  0  0
   -2.3870  -12.8440   19.2512 C   0  0  0  0  0  0  0  0  0  0  0  0
    0.5331   -7.6964   16.2751 C   0  0  0  0  0  0  0  0  0  0  0  0
   -0.6740  -10.8737   18.0482 C   0  0  0  0  0  0  0  0  0  0  0  0
    5.6751  -10.5870   29.7637 O   0  0  0  0  0  0  0  0  0  0  0  0
    1.7612   -5.6483   26.7172 C   0  0  0  0  0  0  0  0  0  0  0  0
    0.2221   -9.8326   17.4055 C   0  0  0  0  0  0  0  0  0  0  0  0
    4.3850   -9.0730   28.6745 C   0  0  0  0  0  0  0  0  0  0  0  0
  1  7  4  0
  1 22  4  0
  2 17  4  0
  2 20  4  0
  2 28  4  0
  3  6  1  0
  3 19  1  0
  4 19  1  0
  4 26  1  0
  5 17  4  0
  5 18  4  0
  6 20  1  0
  6 26  1  0
  7 24  4  0
  8 15  4  0
  8 24  4  0
  9 14  4  0
  9 21  4  0
 10 12  4  0
 10 27  4  0
 11 12  4  0
 11 23  4  0
 13 23  4  0
 13 27  4  0
 14 20  4  0
 15 22  4  0
 16 18  4  0
 16 25  2  0
 16 28  4  0
 21 28  4  0
 24 27  1  0
M  END
$$$$

 Created by Python create_sdf_string function

 28 31  0  0  0  0  0  0  0  0999 V2000
   -1.0054  -13.0622   19.1198 C   0  0  0  0  0  0  0  0  0  0  0  0
    3.1478   -8.5360   28.5161 C   0  0  0  0  0  0  0  0  0  0  0  0
    0.5798   -7.1906   27.9330 C   0  0  0  0  0  0  0  0  0  0  0  0
    0.3978   -5.1561   26.6955 C   0  0  0  0  0  0  0  0  0  0  0  0
    2.3063  -10.0533   30.0125 C   0  0  0  0  0  0  0  0  0  0  0  0
    1.8591   -6.8254   27.4685 N   0  0  0  0  0  0  0  0  0  0  0  0
   -0.2167  -12.1055   18.5568 C   0  0  0  0  0  0  0  0  0  0  0  0
   -2.0661  -10.6994   18.1916 C   0  0  0  0  0  0  0  0  0  0  0  0
    5.2703   -7.5691   27.1123 C   0  0  0  0  0  0  0  0  0  0  0  0
    1.6204   -9.9887   17.2935 C   0  0  0  0  0  0  0  0  0  0  0  0
    1.8931   -7.9265   16.2047 C   0  0  0  0  0  0  0  0  0  0  0  0
    2.4396   -9.0801   16.7132 C   0  0  0  0  0  0  0  0  0  0  0  0
   -0.2575   -8.6234   16.8582 C   0  0  0  0  0  0  0  0  0  0  0  0
    4.0614   -7.0367   27.0106 N   0  0  0  0  0  0  0  0  0  0  0  0
   -2.9133  -11.6279   18.7578 C   0  0  0  0  0  0  0  0  0  0  0  0
    4.5688  -10.1291   29.5758 C   0  0  0  0  0  0  0  0  0  0  0  0
    2.1008   -9.0410   29.1852 N   0  0  0  0  0  0  0  0  0  0  0  0
    3.4829  -10.5697   30.2091 N   0  0  0  0  0  0  0  0  0  0  0  0
   -0.3363   -6.1172   27.5628 C   0  0  0  0  0  0  0  0  0  0  0  0
    3.0331   -7.4400   27.6362 C   0  0  0  0  0  0  0  0  0  0  0  0
    5.4553   -8.5933   27.9644 C   0  0  0  0  0  0  0  0  0  0  0  0
   -2.3870  -12.8440   19.2512 C   0  0  0  0  0  0  0  0  0  0  0  0
    0.5331   -7.6964   16.2751 C   0  0  0  0  0  0  0  0  0  0  0  0
   -0.6740  -10.8737   18.0482 C   0  0  0  0  0  0  0  0  0  0  0  0
    5.6751  -10.5870   29.7637 O   0  0  0  0  0  0  0  0  0  0  0  0
    1.7612   -5.6483   26.7172 C   0  0  0  0  0  0  0  0  0  0  0  0
    0.2221   -9.8326   17.4055 C   0  0  0  0  0  0  0  0  0  0  0  0
    4.3850   -9.0730   28.6745 C   0  0  0  0  0  0  0  0  0  0  0  0
  1  7  4  0
  1 22  4  0
  2 17  4  0
  2 20  4  0
  2 28  4  0
  3  6  1  0
  3 19  1  0
  4 19  1  0
  4 26  1  0
  5 17  4  0
  5 18  4  0
  6 20  1  0
  6 26  1  0
  7 24  4  0
  8 15  4  0
  8 24  4  0
  9 14  4  0
  9 21  4  0
 10 12  4  0
 10 27  4  0
 11 12  4  0
 11 23  4  0
 13 23  4  0
 13 27  4  0
 14 20  4  0
 15 22  4  0
 16 18  4  0
 16 25  2  0
 16 28  4  0
 21 28  4  0
 24 27  1  0
M  END
$$$$

 Created by Python create_sdf_string function

 28 31  0  0  0  0  0  0  0  0999 V2000
   -1.0054  -13.0622   19.1198 C   0  0  0  0  0  0  0  0  0  0  0  0
    3.1478   -8.5360   28.5161 C   0  0  0  0  0  0  0  0  0  0  0  0
    0.5798   -7.1906   27.9330 C   0  0  0  0  0  0  0  0  0  0  0  0
    0.3978   -5.1561   26.6955 C   0  0  0  0  0  0  0  0  0  0  0  0
    2.3063  -10.0533   30.0125 C   0  0  0  0  0  0  0  0  0  0  0  0
    1.8591   -6.8254   27.4685 N   0  0  0  0  0  0  0  0  0  0  0  0
   -0.2167  -12.1055   18.5568 C   0  0  0  0  0  0  0  0  0  0  0  0
   -2.0661  -10.6994   18.1916 C   0  0  0  0  0  0  0  0  0  0  0  0
    5.2703   -7.5691   27.1123 C   0  0  0  0  0  0  0  0  0  0  0  0
    1.6204   -9.9887   17.2935 C   0  0  0  0  0  0  0  0  0  0  0  0
    1.8931   -7.9265   16.2047 C   0  0  0  0  0  0  0  0  0  0  0  0
    2.4396   -9.0801   16.7132 C   0  0  0  0  0  0  0  0  0  0  0  0
   -0.2575   -8.6234   16.8582 C   0  0  0  0  0  0  0  0  0  0  0  0
    4.0614   -7.0367   27.0106 N   0  0  0  0  0  0  0  0  0  0  0  0
   -2.9133  -11.6279   18.7578 C   0  0  0  0  0  0  0  0  0  0  0  0
    4.5688  -10.1291   29.5758 C   0  0  0  0  0  0  0  0  0  0  0  0
    2.1008   -9.0410   29.1852 N   0  0  0  0  0  0  0  0  0  0  0  0
    3.4829  -10.5697   30.2091 N   0  0  0  0  0  0  0  0  0  0  0  0
   -0.3363   -6.1172   27.5628 C   0  0  0  0  0  0  0  0  0  0  0  0
    3.0331   -7.4400   27.6362 C   0  0  0  0  0  0  0  0  0  0  0  0
    5.4553   -8.5933   27.9644 C   0  0  0  0  0  0  0  0  0  0  0  0
   -2.3870  -12.8440   19.2512 C   0  0  0  0  0  0  0  0  0  0  0  0
    0.5331   -7.6964   16.2751 C   0  0  0  0  0  0  0  0  0  0  0  0
   -0.6740  -10.8737   18.0482 C   0  0  0  0  0  0  0  0  0  0  0  0
    5.6751  -10.5870   29.7637 O   0  0  0  0  0  0  0  0  0  0  0  0
    1.7612   -5.6483   26.7172 C   0  0  0  0  0  0  0  0  0  0  0  0
    0.2221   -9.8326   17.4055 C   0  0  0  0  0  0  0  0  0  0  0  0
    4.3850   -9.0730   28.6745 C   0  0  0  0  0  0  0  0  0  0  0  0
  1  7  4  0
  1 22  4  0
  2 17  4  0
  2 20  4  0
  2 28  4  0
  3  6  1  0
  3 19  1  0
  4 19  1  0
  4 26  1  0
  5 17  4  0
  5 18  4  0
  6 20  1  0
  6 26  1  0
  7 24  4  0
  8 15  4  0
  8 24  4  0
  9 14  4  0
  9 21  4  0
 10 12  4  0
 10 27  4  0
 11 12  4  0
 11 23  4  0
 13 23  4  0
 13 27  4  0
 14 20  4  0
 15 22  4  0
 16 18  4  0
 16 25  2  0
 16 28  4  0
 21 28  4  0
 24 27  1  0
M  END
$$$$

 Created by Python create_sdf_string function

 28 31  0  0  0  0  0  0  0  0999 V2000
   -1.0054  -13.0622   19.1198 C   0  0  0  0  0  0  0  0  0  0  0  0
    3.1478   -8.5360   28.5161 C   0  0  0  0  0  0  0  0  0  0  0  0
    0.5798   -7.1906   27.9330 C   0  0  0  0  0  0  0  0  0  0  0  0
    0.3978   -5.1561   26.6955 C   0  0  0  0  0  0  0  0  0  0  0  0
    2.3063  -10.0533   30.0125 C   0  0  0  0  0  0  0  0  0  0  0  0
    1.8591   -6.8254   27.4685 N   0  0  0  0  0  0  0  0  0  0  0  0
   -0.2167  -12.1055   18.5568 C   0  0  0  0  0  0  0  0  0  0  0  0
   -2.0661  -10.6994   18.1916 C   0  0  0  0  0  0  0  0  0  0  0  0
    5.2703   -7.5691   27.1123 C   0  0  0  0  0  0  0  0  0  0  0  0
    1.6204   -9.9887   17.2935 C   0  0  0  0  0  0  0  0  0  0  0  0
    1.8931   -7.9265   16.2047 C   0  0  0  0  0  0  0  0  0  0  0  0
    2.4396   -9.0801   16.7132 C   0  0  0  0  0  0  0  0  0  0  0  0
   -0.2575   -8.6234   16.8582 C   0  0  0  0  0  0  0  0  0  0  0  0
    4.0614   -7.0367   27.0106 N   0  0  0  0  0  0  0  0  0  0  0  0
   -2.9133  -11.6279   18.7578 C   0  0  0  0  0  0  0  0  0  0  0  0
    4.5688  -10.1291   29.5758 C   0  0  0  0  0  0  0  0  0  0  0  0
    2.1008   -9.0410   29.1852 N   0  0  0  0  0  0  0  0  0  0  0  0
    3.4829  -10.5697   30.2091 N   0  0  0  0  0  0  0  0  0  0  0  0
   -0.3363   -6.1172   27.5628 C   0  0  0  0  0  0  0  0  0  0  0  0
    3.0331   -7.4400   27.6362 C   0  0  0  0  0  0  0  0  0  0  0  0
    5.4553   -8.5933   27.9644 C   0  0  0  0  0  0  0  0  0  0  0  0
   -2.3870  -12.8440   19.2512 C   0  0  0  0  0  0  0  0  0  0  0  0
    0.5331   -7.6964   16.2751 C   0  0  0  0  0  0  0  0  0  0  0  0
   -0.6740  -10.8737   18.0482 C   0  0  0  0  0  0  0  0  0  0  0  0
    5.6751  -10.5870   29.7637 O   0  0  0  0  0  0  0  0  0  0  0  0
    1.7612   -5.6483   26.7172 C   0  0  0  0  0  0  0  0  0  0  0  0
    0.2221   -9.8326   17.4055 C   0  0  0  0  0  0  0  0  0  0  0  0
    4.3850   -9.0730   28.6745 C   0  0  0  0  0  0  0  0  0  0  0  0
  1  7  4  0
  1 22  4  0
  2 17  4  0
  2 20  4  0
  2 28  4  0
  3  6  1  0
  3 19  1  0
  4 19  1  0
  4 26  1  0
  5 17  4  0
  5 18  4  0
  6 20  1  0
  6 26  1  0
  7 24  4  0
  8 15  4  0
  8 24  4  0
  9 14  4  0
  9 21  4  0
 10 12  4  0
 10 27  4  0
 11 12  4  0
 11 23  4  0
 13 23  4  0
 13 27  4  0
 14 20  4  0
 15 22  4  0
 16 18  4  0
 16 25  2  0
 16 28  4  0
 21 28  4  0
 24 27  1  0
M  END
$$$$

 Created by Python create_sdf_string function

 28 31  0  0  0  0  0  0  0  0999 V2000
   -1.0054  -13.0622   19.1198 C   0  0  0  0  0  0  0  0  0  0  0  0
    3.1478   -8.5360   28.5161 C   0  0  0  0  0  0  0  0  0  0  0  0
    0.5798   -7.1906   27.9330 C   0  0  0  0  0  0  0  0  0  0  0  0
    0.3978   -5.1561   26.6955 C   0  0  0  0  0  0  0  0  0  0  0  0
    2.3063  -10.0533   30.0125 C   0  0  0  0  0  0  0  0  0  0  0  0
    1.8591   -6.8254   27.4685 N   0  0  0  0  0  0  0  0  0  0  0  0
   -0.2167  -12.1055   18.5568 C   0  0  0  0  0  0  0  0  0  0  0  0
   -2.0661  -10.6994   18.1916 C   0  0  0  0  0  0  0  0  0  0  0  0
    5.2703   -7.5691   27.1123 C   0  0  0  0  0  0  0  0  0  0  0  0
    1.6204   -9.9887   17.2935 C   0  0  0  0  0  0  0  0  0  0  0  0
    1.8931   -7.9265   16.2047 C   0  0  0  0  0  0  0  0  0  0  0  0
    2.4396   -9.0801   16.7132 C   0  0  0  0  0  0  0  0  0  0  0  0
   -0.2575   -8.6234   16.8582 C   0  0  0  0  0  0  0  0  0  0  0  0
    4.0614   -7.0367   27.0106 N   0  0  0  0  0  0  0  0  0  0  0  0
   -2.9133  -11.6279   18.7578 C   0  0  0  0  0  0  0  0  0  0  0  0
    4.5688  -10.1291   29.5758 C   0  0  0  0  0  0  0  0  0  0  0  0
    2.1008   -9.0410   29.1852 N   0  0  0  0  0  0  0  0  0  0  0  0
    3.4829  -10.5697   30.2091 N   0  0  0  0  0  0  0  0  0  0  0  0
   -0.3363   -6.1172   27.5628 C   0  0  0  0  0  0  0  0  0  0  0  0
    3.0331   -7.4400   27.6362 C   0  0  0  0  0  0  0  0  0  0  0  0
    5.4553   -8.5933   27.9644 C   0  0  0  0  0  0  0  0  0  0  0  0
   -2.3870  -12.8440   19.2512 C   0  0  0  0  0  0  0  0  0  0  0  0
    0.5331   -7.6964   16.2751 C   0  0  0  0  0  0  0  0  0  0  0  0
   -0.6740  -10.8737   18.0482 C   0  0  0  0  0  0  0  0  0  0  0  0
    5.6751  -10.5870   29.7637 O   0  0  0  0  0  0  0  0  0  0  0  0
    1.7612   -5.6483   26.7172 C   0  0  0  0  0  0  0  0  0  0  0  0
    0.2221   -9.8326   17.4055 C   0  0  0  0  0  0  0  0  0  0  0  0
    4.3850   -9.0730   28.6745 C   0  0  0  0  0  0  0  0  0  0  0  0
  1  7  4  0
  1 22  4  0
  2 17  4  0
  2 20  4  0
  2 28  4  0
  3  6  1  0
  3 19  1  0
  4 19  1  0
  4 26  1  0
  5 17  4  0
  5 18  4  0
  6 20  1  0
  6 26  1  0
  7 24  4  0
  8 15  4  0
  8 24  4  0
  9 14  4  0
  9 21  4  0
 10 12  4  0
 10 27  4  0
 11 12  4  0
 11 23  4  0
 13 23  4  0
 13 27  4  0
 14 20  4  0
 15 22  4  0
 16 18  4  0
 16 25  2  0
 16 28  4  0
 21 28  4  0
 24 27  1  0
M  END
$$$$

 Created by Python create_sdf_string function

 28 31  0  0  0  0  0  0  0  0999 V2000
   -1.0054  -13.0622   19.1198 C   0  0  0  0  0  0  0  0  0  0  0  0
    3.1478   -8.5360   28.5161 C   0  0  0  0  0  0  0  0  0  0  0  0
    0.5798   -7.1906   27.9330 C   0  0  0  0  0  0  0  0  0  0  0  0
    0.3978   -5.1561   26.6955 C   0  0  0  0  0  0  0  0  0  0  0  0
    2.3063  -10.0533   30.0125 C   0  0  0  0  0  0  0  0  0  0  0  0
    1.8591   -6.8254   27.4685 N   0  0  0  0  0  0  0  0  0  0  0  0
   -0.2167  -12.1055   18.5568 C   0  0  0  0  0  0  0  0  0  0  0  0
   -2.0661  -10.6994   18.1916 C   0  0  0  0  0  0  0  0  0  0  0  0
    5.2703   -7.5691   27.1123 C   0  0  0  0  0  0  0  0  0  0  0  0
    1.6204   -9.9887   17.2935 C   0  0  0  0  0  0  0  0  0  0  0  0
    1.8931   -7.9265   16.2047 C   0  0  0  0  0  0  0  0  0  0  0  0
    2.4396   -9.0801   16.7132 C   0  0  0  0  0  0  0  0  0  0  0  0
   -0.2575   -8.6234   16.8582 C   0  0  0  0  0  0  0  0  0  0  0  0
    4.0614   -7.0367   27.0106 N   0  0  0  0  0  0  0  0  0  0  0  0
   -2.9133  -11.6279   18.7578 C   0  0  0  0  0  0  0  0  0  0  0  0
    4.5688  -10.1291   29.5758 C   0  0  0  0  0  0  0  0  0  0  0  0
    2.1008   -9.0410   29.1852 N   0  0  0  0  0  0  0  0  0  0  0  0
    3.4829  -10.5697   30.2091 N   0  0  0  0  0  0  0  0  0  0  0  0
   -0.3363   -6.1172   27.5628 C   0  0  0  0  0  0  0  0  0  0  0  0
    3.0331   -7.4400   27.6362 C   0  0  0  0  0  0  0  0  0  0  0  0
    5.4553   -8.5933   27.9644 C   0  0  0  0  0  0  0  0  0  0  0  0
   -2.3870  -12.8440   19.2512 C   0  0  0  0  0  0  0  0  0  0  0  0
    0.5331   -7.6964   16.2751 C   0  0  0  0  0  0  0  0  0  0  0  0
   -0.6740  -10.8737   18.0482 C   0  0  0  0  0  0  0  0  0  0  0  0
    5.6751  -10.5870   29.7637 O   0  0  0  0  0  0  0  0  0  0  0  0
    1.7612   -5.6483   26.7172 C   0  0  0  0  0  0  0  0  0  0  0  0
    0.2221   -9.8326   17.4055 C   0  0  0  0  0  0  0  0  0  0  0  0
    4.3850   -9.0730   28.6745 C   0  0  0  0  0  0  0  0  0  0  0  0
  1  7  4  0
  1 22  4  0
  2 17  4  0
  2 20  4  0
  2 28  4  0
  3  6  1  0
  3 19  1  0
  4 19  1  0
  4 26  1  0
  5 17  4  0
  5 18  4  0
  6 20  1  0
  6 26  1  0
  7 24  4  0
  8 15  4  0
  8 24  4  0
  9 14  4  0
  9 21  4  0
 10 12  4  0
 10 27  4  0
 11 12  4  0
 11 23  4  0
 13 23  4  0
 13 27  4  0
 14 20  4  0
 15 22  4  0
 16 18  4  0
 16 25  2  0
 16 28  4  0
 21 28  4  0
 24 27  1  0
M  END
$$$$

 Created by Python create_sdf_string function

 28 31  0  0  0  0  0  0  0  0999 V2000
   -1.0054  -13.0622   19.1198 C   0  0  0  0  0  0  0  0  0  0  0  0
    3.1478   -8.5360   28.5161 C   0  0  0  0  0  0  0  0  0  0  0  0
    0.5798   -7.1906   27.9330 C   0  0  0  0  0  0  0  0  0  0  0  0
    0.3978   -5.1561   26.6955 C   0  0  0  0  0  0  0  0  0  0  0  0
    2.3063  -10.0533   30.0125 C   0  0  0  0  0  0  0  0  0  0  0  0
    1.8591   -6.8254   27.4685 N   0  0  0  0  0  0  0  0  0  0  0  0
   -0.2167  -12.1055   18.5568 C   0  0  0  0  0  0  0  0  0  0  0  0
   -2.0661  -10.6994   18.1916 C   0  0  0  0  0  0  0  0  0  0  0  0
    5.2703   -7.5691   27.1123 C   0  0  0  0  0  0  0  0  0  0  0  0
    1.6204   -9.9887   17.2935 C   0  0  0  0  0  0  0  0  0  0  0  0
    1.8931   -7.9265   16.2047 C   0  0  0  0  0  0  0  0  0  0  0  0
    2.4396   -9.0801   16.7132 C   0  0  0  0  0  0  0  0  0  0  0  0
   -0.2575   -8.6234   16.8582 C   0  0  0  0  0  0  0  0  0  0  0  0
    4.0614   -7.0367   27.0106 N   0  0  0  0  0  0  0  0  0  0  0  0
   -2.9133  -11.6279   18.7578 C   0  0  0  0  0  0  0  0  0  0  0  0
    4.5688  -10.1291   29.5758 C   0  0  0  0  0  0  0  0  0  0  0  0
    2.1008   -9.0410   29.1852 N   0  0  0  0  0  0  0  0  0  0  0  0
    3.4829  -10.5697   30.2091 N   0  0  0  0  0  0  0  0  0  0  0  0
   -0.3363   -6.1172   27.5628 C   0  0  0  0  0  0  0  0  0  0  0  0
    3.0331   -7.4400   27.6362 C   0  0  0  0  0  0  0  0  0  0  0  0
    5.4553   -8.5933   27.9644 C   0  0  0  0  0  0  0  0  0  0  0  0
   -2.3870  -12.8440   19.2512 C   0  0  0  0  0  0  0  0  0  0  0  0
    0.5331   -7.6964   16.2751 C   0  0  0  0  0  0  0  0  0  0  0  0
   -0.6740  -10.8737   18.0482 C   0  0  0  0  0  0  0  0  0  0  0  0
    5.6751  -10.5870   29.7637 O   0  0  0  0  0  0  0  0  0  0  0  0
    1.7612   -5.6483   26.7172 C   0  0  0  0  0  0  0  0  0  0  0  0
    0.2221   -9.8326   17.4055 C   0  0  0  0  0  0  0  0  0  0  0  0
    4.3850   -9.0730   28.6745 C   0  0  0  0  0  0  0  0  0  0  0  0
  1  7  4  0
  1 22  4  0
  2 17  4  0
  2 20  4  0
  2 28  4  0
  3  6  1  0
  3 19  1  0
  4 19  1  0
  4 26  1  0
  5 17  4  0
  5 18  4  0
  6 20  1  0
  6 26  1  0
  7 24  4  0
  8 15  4  0
  8 24  4  0
  9 14  4  0
  9 21  4  0
 10 12  4  0
 10 27  4  0
 11 12  4  0
 11 23  4  0
 13 23  4  0
 13 27  4  0
 14 20  4  0
 15 22  4  0
 16 18  4  0
 16 25  2  0
 16 28  4  0
 21 28  4  0
 24 27  1  0
M  END
$$$$

 Created by Python create_sdf_string function

 28 31  0  0  0  0  0  0  0  0999 V2000
   -1.0054  -13.0622   19.1198 C   0  0  0  0  0  0  0  0  0  0  0  0
    3.1478   -8.5360   28.5161 C   0  0  0  0  0  0  0  0  0  0  0  0
    0.5798   -7.1906   27.9330 C   0  0  0  0  0  0  0  0  0  0  0  0
    0.3978   -5.1561   26.6955 C   0  0  0  0  0  0  0  0  0  0  0  0
    2.3063  -10.0533   30.0125 C   0  0  0  0  0  0  0  0  0  0  0  0
    1.8591   -6.8254   27.4685 N   0  0  0  0  0  0  0  0  0  0  0  0
   -0.2167  -12.1055   18.5568 C   0  0  0  0  0  0  0  0  0  0  0  0
   -2.0661  -10.6994   18.1916 C   0  0  0  0  0  0  0  0  0  0  0  0
    5.2703   -7.5691   27.1123 C   0  0  0  0  0  0  0  0  0  0  0  0
    1.6204   -9.9887   17.2935 C   0  0  0  0  0  0  0  0  0  0  0  0
    1.8931   -7.9265   16.2047 C   0  0  0  0  0  0  0  0  0  0  0  0
    2.4396   -9.0801   16.7132 C   0  0  0  0  0  0  0  0  0  0  0  0
   -0.2575   -8.6234   16.8582 C   0  0  0  0  0  0  0  0  0  0  0  0
    4.0614   -7.0367   27.0106 N   0  0  0  0  0  0  0  0  0  0  0  0
   -2.9133  -11.6279   18.7578 C   0  0  0  0  0  0  0  0  0  0  0  0
    4.5688  -10.1291   29.5758 C   0  0  0  0  0  0  0  0  0  0  0  0
    2.1008   -9.0410   29.1852 N   0  0  0  0  0  0  0  0  0  0  0  0
    3.4829  -10.5697   30.2091 N   0  0  0  0  0  0  0  0  0  0  0  0
   -0.3363   -6.1172   27.5628 C   0  0  0  0  0  0  0  0  0  0  0  0
    3.0331   -7.4400   27.6362 C   0  0  0  0  0  0  0  0  0  0  0  0
    5.4553   -8.5933   27.9644 C   0  0  0  0  0  0  0  0  0  0  0  0
   -2.3870  -12.8440   19.2512 C   0  0  0  0  0  0  0  0  0  0  0  0
    0.5331   -7.6964   16.2751 C   0  0  0  0  0  0  0  0  0  0  0  0
   -0.6740  -10.8737   18.0482 C   0  0  0  0  0  0  0  0  0  0  0  0
    5.6751  -10.5870   29.7637 O   0  0  0  0  0  0  0  0  0  0  0  0
    1.7612   -5.6483   26.7172 C   0  0  0  0  0  0  0  0  0  0  0  0
    0.2221   -9.8326   17.4055 C   0  0  0  0  0  0  0  0  0  0  0  0
    4.3850   -9.0730   28.6745 C   0  0  0  0  0  0  0  0  0  0  0  0
  1  7  4  0
  1 22  4  0
  2 17  4  0
  2 20  4  0
  2 28  4  0
  3  6  1  0
  3 19  1  0
  4 19  1  0
  4 26  1  0
  5 17  4  0
  5 18  4  0
  6 20  1  0
  6 26  1  0
  7 24  4  0
  8 15  4  0
  8 24  4  0
  9 14  4  0
  9 21  4  0
 10 12  4  0
 10 27  4  0
 11 12  4  0
 11 23  4  0
 13 23  4  0
 13 27  4  0
 14 20  4  0
 15 22  4  0
 16 18  4  0
 16 25  2  0
 16 28  4  0
 21 28  4  0
 24 27  1  0
M  END
$$$$

 Created by Python create_sdf_string function

 28 31  0  0  0  0  0  0  0  0999 V2000
   -1.0054  -13.0622   19.1198 C   0  0  0  0  0  0  0  0  0  0  0  0
    3.1478   -8.5360   28.5161 C   0  0  0  0  0  0  0  0  0  0  0  0
    0.5798   -7.1906   27.9330 C   0  0  0  0  0  0  0  0  0  0  0  0
    0.3978   -5.1561   26.6955 C   0  0  0  0  0  0  0  0  0  0  0  0
    2.3063  -10.0533   30.0125 C   0  0  0  0  0  0  0  0  0  0  0  0
    1.8591   -6.8254   27.4685 N   0  0  0  0  0  0  0  0  0  0  0  0
   -0.2167  -12.1055   18.5568 C   0  0  0  0  0  0  0  0  0  0  0  0
   -2.0661  -10.6994   18.1916 C   0  0  0  0  0  0  0  0  0  0  0  0
    5.2703   -7.5691   27.1123 C   0  0  0  0  0  0  0  0  0  0  0  0
    1.6204   -9.9887   17.2935 C   0  0  0  0  0  0  0  0  0  0  0  0
    1.8931   -7.9265   16.2047 C   0  0  0  0  0  0  0  0  0  0  0  0
    2.4396   -9.0801   16.7132 C   0  0  0  0  0  0  0  0  0  0  0  0
   -0.2575   -8.6234   16.8582 C   0  0  0  0  0  0  0  0  0  0  0  0
    4.0614   -7.0367   27.0106 N   0  0  0  0  0  0  0  0  0  0  0  0
   -2.9133  -11.6279   18.7578 C   0  0  0  0  0  0  0  0  0  0  0  0
    4.5688  -10.1291   29.5758 C   0  0  0  0  0  0  0  0  0  0  0  0
    2.1008   -9.0410   29.1852 N   0  0  0  0  0  0  0  0  0  0  0  0
    3.4829  -10.5697   30.2091 N   0  0  0  0  0  0  0  0  0  0  0  0
   -0.3363   -6.1172   27.5628 C   0  0  0  0  0  0  0  0  0  0  0  0
    3.0331   -7.4400   27.6362 C   0  0  0  0  0  0  0  0  0  0  0  0
    5.4553   -8.5933   27.9644 C   0  0  0  0  0  0  0  0  0  0  0  0
   -2.3870  -12.8440   19.2512 C   0  0  0  0  0  0  0  0  0  0  0  0
    0.5331   -7.6964   16.2751 C   0  0  0  0  0  0  0  0  0  0  0  0
   -0.6740  -10.8737   18.0482 C   0  0  0  0  0  0  0  0  0  0  0  0
    5.6751  -10.5870   29.7637 O   0  0  0  0  0  0  0  0  0  0  0  0
    1.7612   -5.6483   26.7172 C   0  0  0  0  0  0  0  0  0  0  0  0
    0.2221   -9.8326   17.4055 C   0  0  0  0  0  0  0  0  0  0  0  0
    4.3850   -9.0730   28.6745 C   0  0  0  0  0  0  0  0  0  0  0  0
  1  7  4  0
  1 22  4  0
  2 17  4  0
  2 20  4  0
  2 28  4  0
  3  6  1  0
  3 19  1  0
  4 19  1  0
  4 26  1  0
  5 17  4  0
  5 18  4  0
  6 20  1  0
  6 26  1  0
  7 24  4  0
  8 15  4  0
  8 24  4  0
  9 14  4  0
  9 21  4  0
 10 12  4  0
 10 27  4  0
 11 12  4  0
 11 23  4  0
 13 23  4  0
 13 27  4  0
 14 20  4  0
 15 22  4  0
 16 18  4  0
 16 25  2  0
 16 28  4  0
 21 28  4  0
 24 27  1  0
M  END
$$$$

 Created by Python create_sdf_string function

 28 31  0  0  0  0  0  0  0  0999 V2000
   -1.0054  -13.0622   19.1198 C   0  0  0  0  0  0  0  0  0  0  0  0
    3.1478   -8.5360   28.5161 C   0  0  0  0  0  0  0  0  0  0  0  0
    0.5798   -7.1906   27.9330 C   0  0  0  0  0  0  0  0  0  0  0  0
    0.3978   -5.1561   26.6955 C   0  0  0  0  0  0  0  0  0  0  0  0
    2.3063  -10.0533   30.0125 C   0  0  0  0  0  0  0  0  0  0  0  0
    1.8591   -6.8254   27.4685 N   0  0  0  0  0  0  0  0  0  0  0  0
   -0.2167  -12.1055   18.5568 C   0  0  0  0  0  0  0  0  0  0  0  0
   -2.0661  -10.6994   18.1916 C   0  0  0  0  0  0  0  0  0  0  0  0
    5.2703   -7.5691   27.1123 C   0  0  0  0  0  0  0  0  0  0  0  0
    1.6204   -9.9887   17.2935 C   0  0  0  0  0  0  0  0  0  0  0  0
    1.8931   -7.9265   16.2047 C   0  0  0  0  0  0  0  0  0  0  0  0
    2.4396   -9.0801   16.7132 C   0  0  0  0  0  0  0  0  0  0  0  0
   -0.2575   -8.6234   16.8582 C   0  0  0  0  0  0  0  0  0  0  0  0
    4.0614   -7.0367   27.0106 N   0  0  0  0  0  0  0  0  0  0  0  0
   -2.9133  -11.6279   18.7578 C   0  0  0  0  0  0  0  0  0  0  0  0
    4.5688  -10.1291   29.5758 C   0  0  0  0  0  0  0  0  0  0  0  0
    2.1008   -9.0410   29.1852 N   0  0  0  0  0  0  0  0  0  0  0  0
    3.4829  -10.5697   30.2091 N   0  0  0  0  0  0  0  0  0  0  0  0
   -0.3363   -6.1172   27.5628 C   0  0  0  0  0  0  0  0  0  0  0  0
    3.0331   -7.4400   27.6362 C   0  0  0  0  0  0  0  0  0  0  0  0
    5.4553   -8.5933   27.9644 C   0  0  0  0  0  0  0  0  0  0  0  0
   -2.3870  -12.8440   19.2512 C   0  0  0  0  0  0  0  0  0  0  0  0
    0.5331   -7.6964   16.2751 C   0  0  0  0  0  0  0  0  0  0  0  0
   -0.6740  -10.8737   18.0482 C   0  0  0  0  0  0  0  0  0  0  0  0
    5.6751  -10.5870   29.7637 O   0  0  0  0  0  0  0  0  0  0  0  0
    1.7612   -5.6483   26.7172 C   0  0  0  0  0  0  0  0  0  0  0  0
    0.2221   -9.8326   17.4055 C   0  0  0  0  0  0  0  0  0  0  0  0
    4.3850   -9.0730   28.6745 C   0  0  0  0  0  0  0  0  0  0  0  0
  1  7  4  0
  1 22  4  0
  2 17  4  0
  2 20  4  0
  2 28  4  0
  3  6  1  0
  3 19  1  0
  4 19  1  0
  4 26  1  0
  5 17  4  0
  5 18  4  0
  6 20  1  0
  6 26  1  0
  7 24  4  0
  8 15  4  0
  8 24  4  0
  9 14  4  0
  9 21  4  0
 10 12  4  0
 10 27  4  0
 11 12  4  0
 11 23  4  0
 13 23  4  0
 13 27  4  0
 14 20  4  0
 15 22  4  0
 16 18  4  0
 16 25  2  0
 16 28  4  0
 21 28  4  0
 24 27  1  0
M  END
$$$$

 Created by Python create_sdf_string function

 28 31  0  0  0  0  0  0  0  0999 V2000
   -1.0054  -13.0622   19.1198 C   0  0  0  0  0  0  0  0  0  0  0  0
    3.1478   -8.5360   28.5161 C   0  0  0  0  0  0  0  0  0  0  0  0
    0.5798   -7.1906   27.9330 C   0  0  0  0  0  0  0  0  0  0  0  0
    0.3978   -5.1561   26.6955 C   0  0  0  0  0  0  0  0  0  0  0  0
    2.3063  -10.0533   30.0125 C   0  0  0  0  0  0  0  0  0  0  0  0
    1.8591   -6.8254   27.4685 N   0  0  0  0  0  0  0  0  0  0  0  0
   -0.2167  -12.1055   18.5568 C   0  0  0  0  0  0  0  0  0  0  0  0
   -2.0661  -10.6994   18.1916 C   0  0  0  0  0  0  0  0  0  0  0  0
    5.2703   -7.5691   27.1123 C   0  0  0  0  0  0  0  0  0  0  0  0
    1.6204   -9.9887   17.2935 C   0  0  0  0  0  0  0  0  0  0  0  0
    1.8931   -7.9265   16.2047 C   0  0  0  0  0  0  0  0  0  0  0  0
    2.4396   -9.0801   16.7132 C   0  0  0  0  0  0  0  0  0  0  0  0
   -0.2575   -8.6234   16.8582 C   0  0  0  0  0  0  0  0  0  0  0  0
    4.0614   -7.0367   27.0106 N   0  0  0  0  0  0  0  0  0  0  0  0
   -2.9133  -11.6279   18.7578 C   0  0  0  0  0  0  0  0  0  0  0  0
    4.5688  -10.1291   29.5758 C   0  0  0  0  0  0  0  0  0  0  0  0
    2.1008   -9.0410   29.1852 N   0  0  0  0  0  0  0  0  0  0  0  0
    3.4829  -10.5697   30.2091 N   0  0  0  0  0  0  0  0  0  0  0  0
   -0.3363   -6.1172   27.5628 C   0  0  0  0  0  0  0  0  0  0  0  0
    3.0331   -7.4400   27.6362 C   0  0  0  0  0  0  0  0  0  0  0  0
    5.4553   -8.5933   27.9644 C   0  0  0  0  0  0  0  0  0  0  0  0
   -2.3870  -12.8440   19.2512 C   0  0  0  0  0  0  0  0  0  0  0  0
    0.5331   -7.6964   16.2751 C   0  0  0  0  0  0  0  0  0  0  0  0
   -0.6740  -10.8737   18.0482 C   0  0  0  0  0  0  0  0  0  0  0  0
    5.6751  -10.5870   29.7637 O   0  0  0  0  0  0  0  0  0  0  0  0
    1.7612   -5.6483   26.7172 C   0  0  0  0  0  0  0  0  0  0  0  0
    0.2221   -9.8326   17.4055 C   0  0  0  0  0  0  0  0  0  0  0  0
    4.3850   -9.0730   28.6745 C   0  0  0  0  0  0  0  0  0  0  0  0
  1  7  4  0
  1 22  4  0
  2 17  4  0
  2 20  4  0
  2 28  4  0
  3  6  1  0
  3 19  1  0
  4 19  1  0
  4 26  1  0
  5 17  4  0
  5 18  4  0
  6 20  1  0
  6 26  1  0
  7 24  4  0
  8 15  4  0
  8 24  4  0
  9 14  4  0
  9 21  4  0
 10 12  4  0
 10 27  4  0
 11 12  4  0
 11 23  4  0
 13 23  4  0
 13 27  4  0
 14 20  4  0
 15 22  4  0
 16 18  4  0
 16 25  2  0
 16 28  4  0
 21 28  4  0
 24 27  1  0
M  END
$$$$

 Created by Python create_sdf_string function

 28 31  0  0  0  0  0  0  0  0999 V2000
   -1.0054  -13.0622   19.1198 C   0  0  0  0  0  0  0  0  0  0  0  0
    3.1478   -8.5360   28.5161 C   0  0  0  0  0  0  0  0  0  0  0  0
    0.5798   -7.1906   27.9330 C   0  0  0  0  0  0  0  0  0  0  0  0
    0.3978   -5.1561   26.6955 C   0  0  0  0  0  0  0  0  0  0  0  0
    2.3063  -10.0533   30.0125 C   0  0  0  0  0  0  0  0  0  0  0  0
    1.8591   -6.8254   27.4685 N   0  0  0  0  0  0  0  0  0  0  0  0
   -0.2167  -12.1055   18.5568 C   0  0  0  0  0  0  0  0  0  0  0  0
   -2.0661  -10.6994   18.1916 C   0  0  0  0  0  0  0  0  0  0  0  0
    5.2703   -7.5691   27.1123 C   0  0  0  0  0  0  0  0  0  0  0  0
    1.6204   -9.9887   17.2935 C   0  0  0  0  0  0  0  0  0  0  0  0
    1.8931   -7.9265   16.2047 C   0  0  0  0  0  0  0  0  0  0  0  0
    2.4396   -9.0801   16.7132 C   0  0  0  0  0  0  0  0  0  0  0  0
   -0.2575   -8.6234   16.8582 C   0  0  0  0  0  0  0  0  0  0  0  0
    4.0614   -7.0367   27.0106 N   0  0  0  0  0  0  0  0  0  0  0  0
   -2.9133  -11.6279   18.7578 C   0  0  0  0  0  0  0  0  0  0  0  0
    4.5688  -10.1291   29.5758 C   0  0  0  0  0  0  0  0  0  0  0  0
    2.1008   -9.0410   29.1852 N   0  0  0  0  0  0  0  0  0  0  0  0
    3.4829  -10.5697   30.2091 N   0  0  0  0  0  0  0  0  0  0  0  0
   -0.3363   -6.1172   27.5628 C   0  0  0  0  0  0  0  0  0  0  0  0
    3.0331   -7.4400   27.6362 C   0  0  0  0  0  0  0  0  0  0  0  0
    5.4553   -8.5933   27.9644 C   0  0  0  0  0  0  0  0  0  0  0  0
   -2.3870  -12.8440   19.2512 C   0  0  0  0  0  0  0  0  0  0  0  0
    0.5331   -7.6964   16.2751 C   0  0  0  0  0  0  0  0  0  0  0  0
   -0.6740  -10.8737   18.0482 C   0  0  0  0  0  0  0  0  0  0  0  0
    5.6751  -10.5870   29.7637 O   0  0  0  0  0  0  0  0  0  0  0  0
    1.7612   -5.6483   26.7172 C   0  0  0  0  0  0  0  0  0  0  0  0
    0.2221   -9.8326   17.4055 C   0  0  0  0  0  0  0  0  0  0  0  0
    4.3850   -9.0730   28.6745 C   0  0  0  0  0  0  0  0  0  0  0  0
  1  7  4  0
  1 22  4  0
  2 17  4  0
  2 20  4  0
  2 28  4  0
  3  6  1  0
  3 19  1  0
  4 19  1  0
  4 26  1  0
  5 17  4  0
  5 18  4  0
  6 20  1  0
  6 26  1  0
  7 24  4  0
  8 15  4  0
  8 24  4  0
  9 14  4  0
  9 21  4  0
 10 12  4  0
 10 27  4  0
 11 12  4  0
 11 23  4  0
 13 23  4  0
 13 27  4  0
 14 20  4  0
 15 22  4  0
 16 18  4  0
 16 25  2  0
 16 28  4  0
 21 28  4  0
 24 27  1  0
M  END
$$$$

 Created by Python create_sdf_string function

 28 31  0  0  0  0  0  0  0  0999 V2000
   -1.0054  -13.0622   19.1198 C   0  0  0  0  0  0  0  0  0  0  0  0
    3.1478   -8.5360   28.5161 C   0  0  0  0  0  0  0  0  0  0  0  0
    0.5798   -7.1906   27.9330 C   0  0  0  0  0  0  0  0  0  0  0  0
    0.3978   -5.1561   26.6955 C   0  0  0  0  0  0  0  0  0  0  0  0
    2.3063  -10.0533   30.0125 C   0  0  0  0  0  0  0  0  0  0  0  0
    1.8591   -6.8254   27.4685 N   0  0  0  0  0  0  0  0  0  0  0  0
   -0.2167  -12.1055   18.5568 C   0  0  0  0  0  0  0  0  0  0  0  0
   -2.0661  -10.6994   18.1916 C   0  0  0  0  0  0  0  0  0  0  0  0
    5.2703   -7.5691   27.1123 C   0  0  0  0  0  0  0  0  0  0  0  0
    1.6204   -9.9887   17.2935 C   0  0  0  0  0  0  0  0  0  0  0  0
    1.8931   -7.9265   16.2047 C   0  0  0  0  0  0  0  0  0  0  0  0
    2.4396   -9.0801   16.7132 C   0  0  0  0  0  0  0  0  0  0  0  0
   -0.2575   -8.6234   16.8582 C   0  0  0  0  0  0  0  0  0  0  0  0
    4.0614   -7.0367   27.0106 N   0  0  0  0  0  0  0  0  0  0  0  0
   -2.9133  -11.6279   18.7578 C   0  0  0  0  0  0  0  0  0  0  0  0
    4.5688  -10.1291   29.5758 C   0  0  0  0  0  0  0  0  0  0  0  0
    2.1008   -9.0410   29.1852 N   0  0  0  0  0  0  0  0  0  0  0  0
    3.4829  -10.5697   30.2091 N   0  0  0  0  0  0  0  0  0  0  0  0
   -0.3363   -6.1172   27.5628 C   0  0  0  0  0  0  0  0  0  0  0  0
    3.0331   -7.4400   27.6362 C   0  0  0  0  0  0  0  0  0  0  0  0
    5.4553   -8.5933   27.9644 C   0  0  0  0  0  0  0  0  0  0  0  0
   -2.3870  -12.8440   19.2512 C   0  0  0  0  0  0  0  0  0  0  0  0
    0.5331   -7.6964   16.2751 C   0  0  0  0  0  0  0  0  0  0  0  0
   -0.6740  -10.8737   18.0482 C   0  0  0  0  0  0  0  0  0  0  0  0
    5.6751  -10.5870   29.7637 O   0  0  0  0  0  0  0  0  0  0  0  0
    1.7612   -5.6483   26.7172 C   0  0  0  0  0  0  0  0  0  0  0  0
    0.2221   -9.8326   17.4055 C   0  0  0  0  0  0  0  0  0  0  0  0
    4.3850   -9.0730   28.6745 C   0  0  0  0  0  0  0  0  0  0  0  0
  1  7  4  0
  1 22  4  0
  2 17  4  0
  2 20  4  0
  2 28  4  0
  3  6  1  0
  3 19  1  0
  4 19  1  0
  4 26  1  0
  5 17  4  0
  5 18  4  0
  6 20  1  0
  6 26  1  0
  7 24  4  0
  8 15  4  0
  8 24  4  0
  9 14  4  0
  9 21  4  0
 10 12  4  0
 10 27  4  0
 11 12  4  0
 11 23  4  0
 13 23  4  0
 13 27  4  0
 14 20  4  0
 15 22  4  0
 16 18  4  0
 16 25  2  0
 16 28  4  0
 21 28  4  0
 24 27  1  0
M  END
$$$$

 Created by Python create_sdf_string function

 28 31  0  0  0  0  0  0  0  0999 V2000
   -1.0054  -13.0622   19.1198 C   0  0  0  0  0  0  0  0  0  0  0  0
    3.1478   -8.5360   28.5161 C   0  0  0  0  0  0  0  0  0  0  0  0
    0.5798   -7.1906   27.9330 C   0  0  0  0  0  0  0  0  0  0  0  0
    0.3978   -5.1561   26.6955 C   0  0  0  0  0  0  0  0  0  0  0  0
    2.3063  -10.0533   30.0125 C   0  0  0  0  0  0  0  0  0  0  0  0
    1.8591   -6.8254   27.4685 N   0  0  0  0  0  0  0  0  0  0  0  0
   -0.2167  -12.1055   18.5568 C   0  0  0  0  0  0  0  0  0  0  0  0
   -2.0661  -10.6994   18.1916 C   0  0  0  0  0  0  0  0  0  0  0  0
    5.2703   -7.5691   27.1123 C   0  0  0  0  0  0  0  0  0  0  0  0
    1.6204   -9.9887   17.2935 C   0  0  0  0  0  0  0  0  0  0  0  0
    1.8931   -7.9265   16.2047 C   0  0  0  0  0  0  0  0  0  0  0  0
    2.4396   -9.0801   16.7132 C   0  0  0  0  0  0  0  0  0  0  0  0
   -0.2575   -8.6234   16.8582 C   0  0  0  0  0  0  0  0  0  0  0  0
    4.0614   -7.0367   27.0106 N   0  0  0  0  0  0  0  0  0  0  0  0
   -2.9133  -11.6279   18.7578 C   0  0  0  0  0  0  0  0  0  0  0  0
    4.5688  -10.1291   29.5758 C   0  0  0  0  0  0  0  0  0  0  0  0
    2.1008   -9.0410   29.1852 N   0  0  0  0  0  0  0  0  0  0  0  0
    3.4829  -10.5697   30.2091 N   0  0  0  0  0  0  0  0  0  0  0  0
   -0.3363   -6.1172   27.5628 C   0  0  0  0  0  0  0  0  0  0  0  0
    3.0331   -7.4400   27.6362 C   0  0  0  0  0  0  0  0  0  0  0  0
    5.4553   -8.5933   27.9644 C   0  0  0  0  0  0  0  0  0  0  0  0
   -2.3870  -12.8440   19.2512 C   0  0  0  0  0  0  0  0  0  0  0  0
    0.5331   -7.6964   16.2751 C   0  0  0  0  0  0  0  0  0  0  0  0
   -0.6740  -10.8737   18.0482 C   0  0  0  0  0  0  0  0  0  0  0  0
    5.6751  -10.5870   29.7637 O   0  0  0  0  0  0  0  0  0  0  0  0
    1.7612   -5.6483   26.7172 C   0  0  0  0  0  0  0  0  0  0  0  0
    0.2221   -9.8326   17.4055 C   0  0  0  0  0  0  0  0  0  0  0  0
    4.3850   -9.0730   28.6745 C   0  0  0  0  0  0  0  0  0  0  0  0
  1  7  4  0
  1 22  4  0
  2 17  4  0
  2 20  4  0
  2 28  4  0
  3  6  1  0
  3 19  1  0
  4 19  1  0
  4 26  1  0
  5 17  4  0
  5 18  4  0
  6 20  1  0
  6 26  1  0
  7 24  4  0
  8 15  4  0
  8 24  4  0
  9 14  4  0
  9 21  4  0
 10 12  4  0
 10 27  4  0
 11 12  4  0
 11 23  4  0
 13 23  4  0
 13 27  4  0
 14 20  4  0
 15 22  4  0
 16 18  4  0
 16 25  2  0
 16 28  4  0
 21 28  4  0
 24 27  1  0
M  END
$$$$

 Created by Python create_sdf_string function

 28 31  0  0  0  0  0  0  0  0999 V2000
   -1.0054  -13.0622   19.1198 C   0  0  0  0  0  0  0  0  0  0  0  0
    3.1478   -8.5360   28.5161 C   0  0  0  0  0  0  0  0  0  0  0  0
    0.5798   -7.1906   27.9330 C   0  0  0  0  0  0  0  0  0  0  0  0
    0.3978   -5.1561   26.6955 C   0  0  0  0  0  0  0  0  0  0  0  0
    2.3063  -10.0533   30.0125 C   0  0  0  0  0  0  0  0  0  0  0  0
    1.8591   -6.8254   27.4685 N   0  0  0  0  0  0  0  0  0  0  0  0
   -0.2167  -12.1055   18.5568 C   0  0  0  0  0  0  0  0  0  0  0  0
   -2.0661  -10.6994   18.1916 C   0  0  0  0  0  0  0  0  0  0  0  0
    5.2703   -7.5691   27.1123 C   0  0  0  0  0  0  0  0  0  0  0  0
    1.6204   -9.9887   17.2935 C   0  0  0  0  0  0  0  0  0  0  0  0
    1.8931   -7.9265   16.2047 C   0  0  0  0  0  0  0  0  0  0  0  0
    2.4396   -9.0801   16.7132 C   0  0  0  0  0  0  0  0  0  0  0  0
   -0.2575   -8.6234   16.8582 C   0  0  0  0  0  0  0  0  0  0  0  0
    4.0614   -7.0367   27.0106 N   0  0  0  0  0  0  0  0  0  0  0  0
   -2.9133  -11.6279   18.7578 C   0  0  0  0  0  0  0  0  0  0  0  0
    4.5688  -10.1291   29.5758 C   0  0  0  0  0  0  0  0  0  0  0  0
    2.1008   -9.0410   29.1852 N   0  0  0  0  0  0  0  0  0  0  0  0
    3.4829  -10.5697   30.2091 N   0  0  0  0  0  0  0  0  0  0  0  0
   -0.3363   -6.1172   27.5628 C   0  0  0  0  0  0  0  0  0  0  0  0
    3.0331   -7.4400   27.6362 C   0  0  0  0  0  0  0  0  0  0  0  0
    5.4553   -8.5933   27.9644 C   0  0  0  0  0  0  0  0  0  0  0  0
   -2.3870  -12.8440   19.2512 C   0  0  0  0  0  0  0  0  0  0  0  0
    0.5331   -7.6964   16.2751 C   0  0  0  0  0  0  0  0  0  0  0  0
   -0.6740  -10.8737   18.0482 C   0  0  0  0  0  0  0  0  0  0  0  0
    5.6751  -10.5870   29.7637 O   0  0  0  0  0  0  0  0  0  0  0  0
    1.7612   -5.6483   26.7172 C   0  0  0  0  0  0  0  0  0  0  0  0
    0.2221   -9.8326   17.4055 C   0  0  0  0  0  0  0  0  0  0  0  0
    4.3850   -9.0730   28.6745 C   0  0  0  0  0  0  0  0  0  0  0  0
  1  7  4  0
  1 22  4  0
  2 17  4  0
  2 20  4  0
  2 28  4  0
  3  6  1  0
  3 19  1  0
  4 19  1  0
  4 26  1  0
  5 17  4  0
  5 18  4  0
  6 20  1  0
  6 26  1  0
  7 24  4  0
  8 15  4  0
  8 24  4  0
  9 14  4  0
  9 21  4  0
 10 12  4  0
 10 27  4  0
 11 12  4  0
 11 23  4  0
 13 23  4  0
 13 27  4  0
 14 20  4  0
 15 22  4  0
 16 18  4  0
 16 25  2  0
 16 28  4  0
 21 28  4  0
 24 27  1  0
M  END
$$$$

 Created by Python create_sdf_string function

 28 31  0  0  0  0  0  0  0  0999 V2000
   -1.0054  -13.0622   19.1198 C   0  0  0  0  0  0  0  0  0  0  0  0
    3.1478   -8.5360   28.5161 C   0  0  0  0  0  0  0  0  0  0  0  0
    0.5798   -7.1906   27.9330 C   0  0  0  0  0  0  0  0  0  0  0  0
    0.3978   -5.1561   26.6955 C   0  0  0  0  0  0  0  0  0  0  0  0
    2.3063  -10.0533   30.0125 C   0  0  0  0  0  0  0  0  0  0  0  0
    1.8591   -6.8254   27.4685 N   0  0  0  0  0  0  0  0  0  0  0  0
   -0.2167  -12.1055   18.5568 C   0  0  0  0  0  0  0  0  0  0  0  0
   -2.0661  -10.6994   18.1916 C   0  0  0  0  0  0  0  0  0  0  0  0
    5.2703   -7.5691   27.1123 C   0  0  0  0  0  0  0  0  0  0  0  0
    1.6204   -9.9887   17.2935 C   0  0  0  0  0  0  0  0  0  0  0  0
    1.8931   -7.9265   16.2047 C   0  0  0  0  0  0  0  0  0  0  0  0
    2.4396   -9.0801   16.7132 C   0  0  0  0  0  0  0  0  0  0  0  0
   -0.2575   -8.6234   16.8582 C   0  0  0  0  0  0  0  0  0  0  0  0
    4.0614   -7.0367   27.0106 N   0  0  0  0  0  0  0  0  0  0  0  0
   -2.9133  -11.6279   18.7578 C   0  0  0  0  0  0  0  0  0  0  0  0
    4.5688  -10.1291   29.5758 C   0  0  0  0  0  0  0  0  0  0  0  0
    2.1008   -9.0410   29.1852 N   0  0  0  0  0  0  0  0  0  0  0  0
    3.4829  -10.5697   30.2091 N   0  0  0  0  0  0  0  0  0  0  0  0
   -0.3363   -6.1172   27.5628 C   0  0  0  0  0  0  0  0  0  0  0  0
    3.0331   -7.4400   27.6362 C   0  0  0  0  0  0  0  0  0  0  0  0
    5.4553   -8.5933   27.9644 C   0  0  0  0  0  0  0  0  0  0  0  0
   -2.3870  -12.8440   19.2512 C   0  0  0  0  0  0  0  0  0  0  0  0
    0.5331   -7.6964   16.2751 C   0  0  0  0  0  0  0  0  0  0  0  0
   -0.6740  -10.8737   18.0482 C   0  0  0  0  0  0  0  0  0  0  0  0
    5.6751  -10.5870   29.7637 O   0  0  0  0  0  0  0  0  0  0  0  0
    1.7612   -5.6483   26.7172 C   0  0  0  0  0  0  0  0  0  0  0  0
    0.2221   -9.8326   17.4055 C   0  0  0  0  0  0  0  0  0  0  0  0
    4.3850   -9.0730   28.6745 C   0  0  0  0  0  0  0  0  0  0  0  0
  1  7  4  0
  1 22  4  0
  2 17  4  0
  2 20  4  0
  2 28  4  0
  3  6  1  0
  3 19  1  0
  4 19  1  0
  4 26  1  0
  5 17  4  0
  5 18  4  0
  6 20  1  0
  6 26  1  0
  7 24  4  0
  8 15  4  0
  8 24  4  0
  9 14  4  0
  9 21  4  0
 10 12  4  0
 10 27  4  0
 11 12  4  0
 11 23  4  0
 13 23  4  0
 13 27  4  0
 14 20  4  0
 15 22  4  0
 16 18  4  0
 16 25  2  0
 16 28  4  0
 21 28  4  0
 24 27  1  0
M  END
$$$$

 Created by Python create_sdf_string function

 28 31  0  0  0  0  0  0  0  0999 V2000
   -1.0054  -13.0622   19.1198 C   0  0  0  0  0  0  0  0  0  0  0  0
    3.1478   -8.5360   28.5161 C   0  0  0  0  0  0  0  0  0  0  0  0
    0.5798   -7.1906   27.9330 C   0  0  0  0  0  0  0  0  0  0  0  0
    0.3978   -5.1561   26.6955 C   0  0  0  0  0  0  0  0  0  0  0  0
    2.3063  -10.0533   30.0125 C   0  0  0  0  0  0  0  0  0  0  0  0
    1.8591   -6.8254   27.4685 N   0  0  0  0  0  0  0  0  0  0  0  0
   -0.2167  -12.1055   18.5568 C   0  0  0  0  0  0  0  0  0  0  0  0
   -2.0661  -10.6994   18.1916 C   0  0  0  0  0  0  0  0  0  0  0  0
    5.2703   -7.5691   27.1123 C   0  0  0  0  0  0  0  0  0  0  0  0
    1.6204   -9.9887   17.2935 C   0  0  0  0  0  0  0  0  0  0  0  0
    1.8931   -7.9265   16.2047 C   0  0  0  0  0  0  0  0  0  0  0  0
    2.4396   -9.0801   16.7132 C   0  0  0  0  0  0  0  0  0  0  0  0
   -0.2575   -8.6234   16.8582 C   0  0  0  0  0  0  0  0  0  0  0  0
    4.0614   -7.0367   27.0106 N   0  0  0  0  0  0  0  0  0  0  0  0
   -2.9133  -11.6279   18.7578 C   0  0  0  0  0  0  0  0  0  0  0  0
    4.5688  -10.1291   29.5758 C   0  0  0  0  0  0  0  0  0  0  0  0
    2.1008   -9.0410   29.1852 N   0  0  0  0  0  0  0  0  0  0  0  0
    3.4829  -10.5697   30.2091 N   0  0  0  0  0  0  0  0  0  0  0  0
   -0.3363   -6.1172   27.5628 C   0  0  0  0  0  0  0  0  0  0  0  0
    3.0331   -7.4400   27.6362 C   0  0  0  0  0  0  0  0  0  0  0  0
    5.4553   -8.5933   27.9644 C   0  0  0  0  0  0  0  0  0  0  0  0
   -2.3870  -12.8440   19.2512 C   0  0  0  0  0  0  0  0  0  0  0  0
    0.5331   -7.6964   16.2751 C   0  0  0  0  0  0  0  0  0  0  0  0
   -0.6740  -10.8737   18.0482 C   0  0  0  0  0  0  0  0  0  0  0  0
    5.6751  -10.5870   29.7637 O   0  0  0  0  0  0  0  0  0  0  0  0
    1.7612   -5.6483   26.7172 C   0  0  0  0  0  0  0  0  0  0  0  0
    0.2221   -9.8326   17.4055 C   0  0  0  0  0  0  0  0  0  0  0  0
    4.3850   -9.0730   28.6745 C   0  0  0  0  0  0  0  0  0  0  0  0
  1  7  4  0
  1 22  4  0
  2 17  4  0
  2 20  4  0
  2 28  4  0
  3  6  1  0
  3 19  1  0
  4 19  1  0
  4 26  1  0
  5 17  4  0
  5 18  4  0
  6 20  1  0
  6 26  1  0
  7 24  4  0
  8 15  4  0
  8 24  4  0
  9 14  4  0
  9 21  4  0
 10 12  4  0
 10 27  4  0
 11 12  4  0
 11 23  4  0
 13 23  4  0
 13 27  4  0
 14 20  4  0
 15 22  4  0
 16 18  4  0
 16 25  2  0
 16 28  4  0
 21 28  4  0
 24 27  1  0
M  END
$$$$

 Created by Python create_sdf_string function

 28 31  0  0  0  0  0  0  0  0999 V2000
   -1.0054  -13.0622   19.1198 C   0  0  0  0  0  0  0  0  0  0  0  0
    3.1478   -8.5360   28.5161 C   0  0  0  0  0  0  0  0  0  0  0  0
    0.5798   -7.1906   27.9330 C   0  0  0  0  0  0  0  0  0  0  0  0
    0.3978   -5.1561   26.6955 C   0  0  0  0  0  0  0  0  0  0  0  0
    2.3063  -10.0533   30.0125 C   0  0  0  0  0  0  0  0  0  0  0  0
    1.8591   -6.8254   27.4685 N   0  0  0  0  0  0  0  0  0  0  0  0
   -0.2167  -12.1055   18.5568 C   0  0  0  0  0  0  0  0  0  0  0  0
   -2.0661  -10.6994   18.1916 C   0  0  0  0  0  0  0  0  0  0  0  0
    5.2703   -7.5691   27.1123 C   0  0  0  0  0  0  0  0  0  0  0  0
    1.6204   -9.9887   17.2935 C   0  0  0  0  0  0  0  0  0  0  0  0
    1.8931   -7.9265   16.2047 C   0  0  0  0  0  0  0  0  0  0  0  0
    2.4396   -9.0801   16.7132 C   0  0  0  0  0  0  0  0  0  0  0  0
   -0.2575   -8.6234   16.8582 C   0  0  0  0  0  0  0  0  0  0  0  0
    4.0614   -7.0367   27.0106 N   0  0  0  0  0  0  0  0  0  0  0  0
   -2.9133  -11.6279   18.7578 C   0  0  0  0  0  0  0  0  0  0  0  0
    4.5688  -10.1291   29.5758 C   0  0  0  0  0  0  0  0  0  0  0  0
    2.1008   -9.0410   29.1852 N   0  0  0  0  0  0  0  0  0  0  0  0
    3.4829  -10.5697   30.2091 N   0  0  0  0  0  0  0  0  0  0  0  0
   -0.3363   -6.1172   27.5628 C   0  0  0  0  0  0  0  0  0  0  0  0
    3.0331   -7.4400   27.6362 C   0  0  0  0  0  0  0  0  0  0  0  0
    5.4553   -8.5933   27.9644 C   0  0  0  0  0  0  0  0  0  0  0  0
   -2.3870  -12.8440   19.2512 C   0  0  0  0  0  0  0  0  0  0  0  0
    0.5331   -7.6964   16.2751 C   0  0  0  0  0  0  0  0  0  0  0  0
   -0.6740  -10.8737   18.0482 C   0  0  0  0  0  0  0  0  0  0  0  0
    5.6751  -10.5870   29.7637 O   0  0  0  0  0  0  0  0  0  0  0  0
    1.7612   -5.6483   26.7172 C   0  0  0  0  0  0  0  0  0  0  0  0
    0.2221   -9.8326   17.4055 C   0  0  0  0  0  0  0  0  0  0  0  0
    4.3850   -9.0730   28.6745 C   0  0  0  0  0  0  0  0  0  0  0  0
  1  7  4  0
  1 22  4  0
  2 17  4  0
  2 20  4  0
  2 28  4  0
  3  6  1  0
  3 19  1  0
  4 19  1  0
  4 26  1  0
  5 17  4  0
  5 18  4  0
  6 20  1  0
  6 26  1  0
  7 24  4  0
  8 15  4  0
  8 24  4  0
  9 14  4  0
  9 21  4  0
 10 12  4  0
 10 27  4  0
 11 12  4  0
 11 23  4  0
 13 23  4  0
 13 27  4  0
 14 20  4  0
 15 22  4  0
 16 18  4  0
 16 25  2  0
 16 28  4  0
 21 28  4  0
 24 27  1  0
M  END
$$$$

 Created by Python create_sdf_string function

 28 31  0  0  0  0  0  0  0  0999 V2000
   -1.0054  -13.0622   19.1198 C   0  0  0  0  0  0  0  0  0  0  0  0
    3.1478   -8.5360   28.5161 C   0  0  0  0  0  0  0  0  0  0  0  0
    0.5798   -7.1906   27.9330 C   0  0  0  0  0  0  0  0  0  0  0  0
    0.3978   -5.1561   26.6955 C   0  0  0  0  0  0  0  0  0  0  0  0
    2.3063  -10.0533   30.0125 C   0  0  0  0  0  0  0  0  0  0  0  0
    1.8591   -6.8254   27.4685 N   0  0  0  0  0  0  0  0  0  0  0  0
   -0.2167  -12.1055   18.5568 C   0  0  0  0  0  0  0  0  0  0  0  0
   -2.0661  -10.6994   18.1916 C   0  0  0  0  0  0  0  0  0  0  0  0
    5.2703   -7.5691   27.1123 C   0  0  0  0  0  0  0  0  0  0  0  0
    1.6204   -9.9887   17.2935 C   0  0  0  0  0  0  0  0  0  0  0  0
    1.8931   -7.9265   16.2047 C   0  0  0  0  0  0  0  0  0  0  0  0
    2.4396   -9.0801   16.7132 C   0  0  0  0  0  0  0  0  0  0  0  0
   -0.2575   -8.6234   16.8582 C   0  0  0  0  0  0  0  0  0  0  0  0
    4.0614   -7.0367   27.0106 N   0  0  0  0  0  0  0  0  0  0  0  0
   -2.9133  -11.6279   18.7578 C   0  0  0  0  0  0  0  0  0  0  0  0
    4.5688  -10.1291   29.5758 C   0  0  0  0  0  0  0  0  0  0  0  0
    2.1008   -9.0410   29.1852 N   0  0  0  0  0  0  0  0  0  0  0  0
    3.4829  -10.5697   30.2091 N   0  0  0  0  0  0  0  0  0  0  0  0
   -0.3363   -6.1172   27.5628 C   0  0  0  0  0  0  0  0  0  0  0  0
    3.0331   -7.4400   27.6362 C   0  0  0  0  0  0  0  0  0  0  0  0
    5.4553   -8.5933   27.9644 C   0  0  0  0  0  0  0  0  0  0  0  0
   -2.3870  -12.8440   19.2512 C   0  0  0  0  0  0  0  0  0  0  0  0
    0.5331   -7.6964   16.2751 C   0  0  0  0  0  0  0  0  0  0  0  0
   -0.6740  -10.8737   18.0482 C   0  0  0  0  0  0  0  0  0  0  0  0
    5.6751  -10.5870   29.7637 O   0  0  0  0  0  0  0  0  0  0  0  0
    1.7612   -5.6483   26.7172 C   0  0  0  0  0  0  0  0  0  0  0  0
    0.2221   -9.8326   17.4055 C   0  0  0  0  0  0  0  0  0  0  0  0
    4.3850   -9.0730   28.6745 C   0  0  0  0  0  0  0  0  0  0  0  0
  1  7  4  0
  1 22  4  0
  2 17  4  0
  2 20  4  0
  2 28  4  0
  3  6  1  0
  3 19  1  0
  4 19  1  0
  4 26  1  0
  5 17  4  0
  5 18  4  0
  6 20  1  0
  6 26  1  0
  7 24  4  0
  8 15  4  0
  8 24  4  0
  9 14  4  0
  9 21  4  0
 10 12  4  0
 10 27  4  0
 11 12  4  0
 11 23  4  0
 13 23  4  0
 13 27  4  0
 14 20  4  0
 15 22  4  0
 16 18  4  0
 16 25  2  0
 16 28  4  0
 21 28  4  0
 24 27  1  0
M  END
$$$$

 Created by Python create_sdf_string function

 28 31  0  0  0  0  0  0  0  0999 V2000
   -1.0054  -13.0622   19.1198 C   0  0  0  0  0  0  0  0  0  0  0  0
    3.1478   -8.5360   28.5161 C   0  0  0  0  0  0  0  0  0  0  0  0
    0.5798   -7.1906   27.9330 C   0  0  0  0  0  0  0  0  0  0  0  0
    0.3978   -5.1561   26.6955 C   0  0  0  0  0  0  0  0  0  0  0  0
    2.3063  -10.0533   30.0125 C   0  0  0  0  0  0  0  0  0  0  0  0
    1.8591   -6.8254   27.4685 N   0  0  0  0  0  0  0  0  0  0  0  0
   -0.2167  -12.1055   18.5568 C   0  0  0  0  0  0  0  0  0  0  0  0
   -2.0661  -10.6994   18.1916 C   0  0  0  0  0  0  0  0  0  0  0  0
    5.2703   -7.5691   27.1123 C   0  0  0  0  0  0  0  0  0  0  0  0
    1.6204   -9.9887   17.2935 C   0  0  0  0  0  0  0  0  0  0  0  0
    1.8931   -7.9265   16.2047 C   0  0  0  0  0  0  0  0  0  0  0  0
    2.4396   -9.0801   16.7132 C   0  0  0  0  0  0  0  0  0  0  0  0
   -0.2575   -8.6234   16.8582 C   0  0  0  0  0  0  0  0  0  0  0  0
    4.0614   -7.0367   27.0106 N   0  0  0  0  0  0  0  0  0  0  0  0
   -2.9133  -11.6279   18.7578 C   0  0  0  0  0  0  0  0  0  0  0  0
    4.5688  -10.1291   29.5758 C   0  0  0  0  0  0  0  0  0  0  0  0
    2.1008   -9.0410   29.1852 N   0  0  0  0  0  0  0  0  0  0  0  0
    3.4829  -10.5697   30.2091 N   0  0  0  0  0  0  0  0  0  0  0  0
   -0.3363   -6.1172   27.5628 C   0  0  0  0  0  0  0  0  0  0  0  0
    3.0331   -7.4400   27.6362 C   0  0  0  0  0  0  0  0  0  0  0  0
    5.4553   -8.5933   27.9644 C   0  0  0  0  0  0  0  0  0  0  0  0
   -2.3870  -12.8440   19.2512 C   0  0  0  0  0  0  0  0  0  0  0  0
    0.5331   -7.6964   16.2751 C   0  0  0  0  0  0  0  0  0  0  0  0
   -0.6740  -10.8737   18.0482 C   0  0  0  0  0  0  0  0  0  0  0  0
    5.6751  -10.5870   29.7637 O   0  0  0  0  0  0  0  0  0  0  0  0
    1.7612   -5.6483   26.7172 C   0  0  0  0  0  0  0  0  0  0  0  0
    0.2221   -9.8326   17.4055 C   0  0  0  0  0  0  0  0  0  0  0  0
    4.3850   -9.0730   28.6745 C   0  0  0  0  0  0  0  0  0  0  0  0
  1  7  4  0
  1 22  4  0
  2 17  4  0
  2 20  4  0
  2 28  4  0
  3  6  1  0
  3 19  1  0
  4 19  1  0
  4 26  1  0
  5 17  4  0
  5 18  4  0
  6 20  1  0
  6 26  1  0
  7 24  4  0
  8 15  4  0
  8 24  4  0
  9 14  4  0
  9 21  4  0
 10 12  4  0
 10 27  4  0
 11 12  4  0
 11 23  4  0
 13 23  4  0
 13 27  4  0
 14 20  4  0
 15 22  4  0
 16 18  4  0
 16 25  2  0
 16 28  4  0
 21 28  4  0
 24 27  1  0
M  END
$$$$

 Created by Python create_sdf_string function

 28 31  0  0  0  0  0  0  0  0999 V2000
   -1.0054  -13.0622   19.1198 C   0  0  0  0  0  0  0  0  0  0  0  0
    3.1478   -8.5360   28.5161 C   0  0  0  0  0  0  0  0  0  0  0  0
    0.5798   -7.1906   27.9330 C   0  0  0  0  0  0  0  0  0  0  0  0
    0.3978   -5.1561   26.6955 C   0  0  0  0  0  0  0  0  0  0  0  0
    2.3063  -10.0533   30.0125 C   0  0  0  0  0  0  0  0  0  0  0  0
    1.8591   -6.8254   27.4685 N   0  0  0  0  0  0  0  0  0  0  0  0
   -0.2167  -12.1055   18.5568 C   0  0  0  0  0  0  0  0  0  0  0  0
   -2.0661  -10.6994   18.1916 C   0  0  0  0  0  0  0  0  0  0  0  0
    5.2703   -7.5691   27.1123 C   0  0  0  0  0  0  0  0  0  0  0  0
    1.6204   -9.9887   17.2935 C   0  0  0  0  0  0  0  0  0  0  0  0
    1.8931   -7.9265   16.2047 C   0  0  0  0  0  0  0  0  0  0  0  0
    2.4396   -9.0801   16.7132 C   0  0  0  0  0  0  0  0  0  0  0  0
   -0.2575   -8.6234   16.8582 C   0  0  0  0  0  0  0  0  0  0  0  0
    4.0614   -7.0367   27.0106 N   0  0  0  0  0  0  0  0  0  0  0  0
   -2.9133  -11.6279   18.7578 C   0  0  0  0  0  0  0  0  0  0  0  0
    4.5688  -10.1291   29.5758 C   0  0  0  0  0  0  0  0  0  0  0  0
    2.1008   -9.0410   29.1852 N   0  0  0  0  0  0  0  0  0  0  0  0
    3.4829  -10.5697   30.2091 N   0  0  0  0  0  0  0  0  0  0  0  0
   -0.3363   -6.1172   27.5628 C   0  0  0  0  0  0  0  0  0  0  0  0
    3.0331   -7.4400   27.6362 C   0  0  0  0  0  0  0  0  0  0  0  0
    5.4553   -8.5933   27.9644 C   0  0  0  0  0  0  0  0  0  0  0  0
   -2.3870  -12.8440   19.2512 C   0  0  0  0  0  0  0  0  0  0  0  0
    0.5331   -7.6964   16.2751 C   0  0  0  0  0  0  0  0  0  0  0  0
   -0.6740  -10.8737   18.0482 C   0  0  0  0  0  0  0  0  0  0  0  0
    5.6751  -10.5870   29.7637 O   0  0  0  0  0  0  0  0  0  0  0  0
    1.7612   -5.6483   26.7172 C   0  0  0  0  0  0  0  0  0  0  0  0
    0.2221   -9.8326   17.4055 C   0  0  0  0  0  0  0  0  0  0  0  0
    4.3850   -9.0730   28.6745 C   0  0  0  0  0  0  0  0  0  0  0  0
  1  7  4  0
  1 22  4  0
  2 17  4  0
  2 20  4  0
  2 28  4  0
  3  6  1  0
  3 19  1  0
  4 19  1  0
  4 26  1  0
  5 17  4  0
  5 18  4  0
  6 20  1  0
  6 26  1  0
  7 24  4  0
  8 15  4  0
  8 24  4  0
  9 14  4  0
  9 21  4  0
 10 12  4  0
 10 27  4  0
 11 12  4  0
 11 23  4  0
 13 23  4  0
 13 27  4  0
 14 20  4  0
 15 22  4  0
 16 18  4  0
 16 25  2  0
 16 28  4  0
 21 28  4  0
 24 27  1  0
M  END
$$$$

 Created by Python create_sdf_string function

 28 31  0  0  0  0  0  0  0  0999 V2000
   -1.0054  -13.0622   19.1198 C   0  0  0  0  0  0  0  0  0  0  0  0
    3.1478   -8.5360   28.5161 C   0  0  0  0  0  0  0  0  0  0  0  0
    0.5798   -7.1906   27.9330 C   0  0  0  0  0  0  0  0  0  0  0  0
    0.3978   -5.1561   26.6955 C   0  0  0  0  0  0  0  0  0  0  0  0
    2.3063  -10.0533   30.0125 C   0  0  0  0  0  0  0  0  0  0  0  0
    1.8591   -6.8254   27.4685 N   0  0  0  0  0  0  0  0  0  0  0  0
   -0.2167  -12.1055   18.5568 C   0  0  0  0  0  0  0  0  0  0  0  0
   -2.0661  -10.6994   18.1916 C   0  0  0  0  0  0  0  0  0  0  0  0
    5.2703   -7.5691   27.1123 C   0  0  0  0  0  0  0  0  0  0  0  0
    1.6204   -9.9887   17.2935 C   0  0  0  0  0  0  0  0  0  0  0  0
    1.8931   -7.9265   16.2047 C   0  0  0  0  0  0  0  0  0  0  0  0
    2.4396   -9.0801   16.7132 C   0  0  0  0  0  0  0  0  0  0  0  0
   -0.2575   -8.6234   16.8582 C   0  0  0  0  0  0  0  0  0  0  0  0
    4.0614   -7.0367   27.0106 N   0  0  0  0  0  0  0  0  0  0  0  0
   -2.9133  -11.6279   18.7578 C   0  0  0  0  0  0  0  0  0  0  0  0
    4.5688  -10.1291   29.5758 C   0  0  0  0  0  0  0  0  0  0  0  0
    2.1008   -9.0410   29.1852 N   0  0  0  0  0  0  0  0  0  0  0  0
    3.4829  -10.5697   30.2091 N   0  0  0  0  0  0  0  0  0  0  0  0
   -0.3363   -6.1172   27.5628 C   0  0  0  0  0  0  0  0  0  0  0  0
    3.0331   -7.4400   27.6362 C   0  0  0  0  0  0  0  0  0  0  0  0
    5.4553   -8.5933   27.9644 C   0  0  0  0  0  0  0  0  0  0  0  0
   -2.3870  -12.8440   19.2512 C   0  0  0  0  0  0  0  0  0  0  0  0
    0.5331   -7.6964   16.2751 C   0  0  0  0  0  0  0  0  0  0  0  0
   -0.6740  -10.8737   18.0482 C   0  0  0  0  0  0  0  0  0  0  0  0
    5.6751  -10.5870   29.7637 O   0  0  0  0  0  0  0  0  0  0  0  0
    1.7612   -5.6483   26.7172 C   0  0  0  0  0  0  0  0  0  0  0  0
    0.2221   -9.8326   17.4055 C   0  0  0  0  0  0  0  0  0  0  0  0
    4.3850   -9.0730   28.6745 C   0  0  0  0  0  0  0  0  0  0  0  0
  1  7  4  0
  1 22  4  0
  2 17  4  0
  2 20  4  0
  2 28  4  0
  3  6  1  0
  3 19  1  0
  4 19  1  0
  4 26  1  0
  5 17  4  0
  5 18  4  0
  6 20  1  0
  6 26  1  0
  7 24  4  0
  8 15  4  0
  8 24  4  0
  9 14  4  0
  9 21  4  0
 10 12  4  0
 10 27  4  0
 11 12  4  0
 11 23  4  0
 13 23  4  0
 13 27  4  0
 14 20  4  0
 15 22  4  0
 16 18  4  0
 16 25  2  0
 16 28  4  0
 21 28  4  0
 24 27  1  0
M  END
$$$$

 Created by Python create_sdf_string function

 28 31  0  0  0  0  0  0  0  0999 V2000
   -1.0054  -13.0622   19.1198 C   0  0  0  0  0  0  0  0  0  0  0  0
    3.1478   -8.5360   28.5161 C   0  0  0  0  0  0  0  0  0  0  0  0
    0.5798   -7.1906   27.9330 C   0  0  0  0  0  0  0  0  0  0  0  0
    0.3978   -5.1561   26.6955 C   0  0  0  0  0  0  0  0  0  0  0  0
    2.3063  -10.0533   30.0125 C   0  0  0  0  0  0  0  0  0  0  0  0
    1.8591   -6.8254   27.4685 N   0  0  0  0  0  0  0  0  0  0  0  0
   -0.2167  -12.1055   18.5568 C   0  0  0  0  0  0  0  0  0  0  0  0
   -2.0661  -10.6994   18.1916 C   0  0  0  0  0  0  0  0  0  0  0  0
    5.2703   -7.5691   27.1123 C   0  0  0  0  0  0  0  0  0  0  0  0
    1.6204   -9.9887   17.2935 C   0  0  0  0  0  0  0  0  0  0  0  0
    1.8931   -7.9265   16.2047 C   0  0  0  0  0  0  0  0  0  0  0  0
    2.4396   -9.0801   16.7132 C   0  0  0  0  0  0  0  0  0  0  0  0
   -0.2575   -8.6234   16.8582 C   0  0  0  0  0  0  0  0  0  0  0  0
    4.0614   -7.0367   27.0106 N   0  0  0  0  0  0  0  0  0  0  0  0
   -2.9133  -11.6279   18.7578 C   0  0  0  0  0  0  0  0  0  0  0  0
    4.5688  -10.1291   29.5758 C   0  0  0  0  0  0  0  0  0  0  0  0
    2.1008   -9.0410   29.1852 N   0  0  0  0  0  0  0  0  0  0  0  0
    3.4829  -10.5697   30.2091 N   0  0  0  0  0  0  0  0  0  0  0  0
   -0.3363   -6.1172   27.5628 C   0  0  0  0  0  0  0  0  0  0  0  0
    3.0331   -7.4400   27.6362 C   0  0  0  0  0  0  0  0  0  0  0  0
    5.4553   -8.5933   27.9644 C   0  0  0  0  0  0  0  0  0  0  0  0
   -2.3870  -12.8440   19.2512 C   0  0  0  0  0  0  0  0  0  0  0  0
    0.5331   -7.6964   16.2751 C   0  0  0  0  0  0  0  0  0  0  0  0
   -0.6740  -10.8737   18.0482 C   0  0  0  0  0  0  0  0  0  0  0  0
    5.6751  -10.5870   29.7637 O   0  0  0  0  0  0  0  0  0  0  0  0
    1.7612   -5.6483   26.7172 C   0  0  0  0  0  0  0  0  0  0  0  0
    0.2221   -9.8326   17.4055 C   0  0  0  0  0  0  0  0  0  0  0  0
    4.3850   -9.0730   28.6745 C   0  0  0  0  0  0  0  0  0  0  0  0
  1  7  4  0
  1 22  4  0
  2 17  4  0
  2 20  4  0
  2 28  4  0
  3  6  1  0
  3 19  1  0
  4 19  1  0
  4 26  1  0
  5 17  4  0
  5 18  4  0
  6 20  1  0
  6 26  1  0
  7 24  4  0
  8 15  4  0
  8 24  4  0
  9 14  4  0
  9 21  4  0
 10 12  4  0
 10 27  4  0
 11 12  4  0
 11 23  4  0
 13 23  4  0
 13 27  4  0
 14 20  4  0
 15 22  4  0
 16 18  4  0
 16 25  2  0
 16 28  4  0
 21 28  4  0
 24 27  1  0
M  END
$$$$

 Created by Python create_sdf_string function

 28 31  0  0  0  0  0  0  0  0999 V2000
   -1.0054  -13.0622   19.1198 C   0  0  0  0  0  0  0  0  0  0  0  0
    3.1478   -8.5360   28.5161 C   0  0  0  0  0  0  0  0  0  0  0  0
    0.5798   -7.1906   27.9330 C   0  0  0  0  0  0  0  0  0  0  0  0
    0.3978   -5.1561   26.6955 C   0  0  0  0  0  0  0  0  0  0  0  0
    2.3063  -10.0533   30.0125 C   0  0  0  0  0  0  0  0  0  0  0  0
    1.8591   -6.8254   27.4685 N   0  0  0  0  0  0  0  0  0  0  0  0
   -0.2167  -12.1055   18.5568 C   0  0  0  0  0  0  0  0  0  0  0  0
   -2.0661  -10.6994   18.1916 C   0  0  0  0  0  0  0  0  0  0  0  0
    5.2703   -7.5691   27.1123 C   0  0  0  0  0  0  0  0  0  0  0  0
    1.6204   -9.9887   17.2935 C   0  0  0  0  0  0  0  0  0  0  0  0
    1.8931   -7.9265   16.2047 C   0  0  0  0  0  0  0  0  0  0  0  0
    2.4396   -9.0801   16.7132 C   0  0  0  0  0  0  0  0  0  0  0  0
   -0.2575   -8.6234   16.8582 C   0  0  0  0  0  0  0  0  0  0  0  0
    4.0614   -7.0367   27.0106 N   0  0  0  0  0  0  0  0  0  0  0  0
   -2.9133  -11.6279   18.7578 C   0  0  0  0  0  0  0  0  0  0  0  0
    4.5688  -10.1291   29.5758 C   0  0  0  0  0  0  0  0  0  0  0  0
    2.1008   -9.0410   29.1852 N   0  0  0  0  0  0  0  0  0  0  0  0
    3.4829  -10.5697   30.2091 N   0  0  0  0  0  0  0  0  0  0  0  0
   -0.3363   -6.1172   27.5628 C   0  0  0  0  0  0  0  0  0  0  0  0
    3.0331   -7.4400   27.6362 C   0  0  0  0  0  0  0  0  0  0  0  0
    5.4553   -8.5933   27.9644 C   0  0  0  0  0  0  0  0  0  0  0  0
   -2.3870  -12.8440   19.2512 C   0  0  0  0  0  0  0  0  0  0  0  0
    0.5331   -7.6964   16.2751 C   0  0  0  0  0  0  0  0  0  0  0  0
   -0.6740  -10.8737   18.0482 C   0  0  0  0  0  0  0  0  0  0  0  0
    5.6751  -10.5870   29.7637 O   0  0  0  0  0  0  0  0  0  0  0  0
    1.7612   -5.6483   26.7172 C   0  0  0  0  0  0  0  0  0  0  0  0
    0.2221   -9.8326   17.4055 C   0  0  0  0  0  0  0  0  0  0  0  0
    4.3850   -9.0730   28.6745 C   0  0  0  0  0  0  0  0  0  0  0  0
  1  7  4  0
  1 22  4  0
  2 17  4  0
  2 20  4  0
  2 28  4  0
  3  6  1  0
  3 19  1  0
  4 19  1  0
  4 26  1  0
  5 17  4  0
  5 18  4  0
  6 20  1  0
  6 26  1  0
  7 24  4  0
  8 15  4  0
  8 24  4  0
  9 14  4  0
  9 21  4  0
 10 12  4  0
 10 27  4  0
 11 12  4  0
 11 23  4  0
 13 23  4  0
 13 27  4  0
 14 20  4  0
 15 22  4  0
 16 18  4  0
 16 25  2  0
 16 28  4  0
 21 28  4  0
 24 27  1  0
M  END
$$$$

 Created by Python create_sdf_string function

 28 31  0  0  0  0  0  0  0  0999 V2000
   -1.0054  -13.0622   19.1198 C   0  0  0  0  0  0  0  0  0  0  0  0
    3.1478   -8.5360   28.5161 C   0  0  0  0  0  0  0  0  0  0  0  0
    0.5798   -7.1906   27.9330 C   0  0  0  0  0  0  0  0  0  0  0  0
    0.3978   -5.1561   26.6955 C   0  0  0  0  0  0  0  0  0  0  0  0
    2.3063  -10.0533   30.0125 C   0  0  0  0  0  0  0  0  0  0  0  0
    1.8591   -6.8254   27.4685 N   0  0  0  0  0  0  0  0  0  0  0  0
   -0.2167  -12.1055   18.5568 C   0  0  0  0  0  0  0  0  0  0  0  0
   -2.0661  -10.6994   18.1916 C   0  0  0  0  0  0  0  0  0  0  0  0
    5.2703   -7.5691   27.1123 C   0  0  0  0  0  0  0  0  0  0  0  0
    1.6204   -9.9887   17.2935 C   0  0  0  0  0  0  0  0  0  0  0  0
    1.8931   -7.9265   16.2047 C   0  0  0  0  0  0  0  0  0  0  0  0
    2.4396   -9.0801   16.7132 C   0  0  0  0  0  0  0  0  0  0  0  0
   -0.2575   -8.6234   16.8582 C   0  0  0  0  0  0  0  0  0  0  0  0
    4.0614   -7.0367   27.0106 N   0  0  0  0  0  0  0  0  0  0  0  0
   -2.9133  -11.6279   18.7578 C   0  0  0  0  0  0  0  0  0  0  0  0
    4.5688  -10.1291   29.5758 C   0  0  0  0  0  0  0  0  0  0  0  0
    2.1008   -9.0410   29.1852 N   0  0  0  0  0  0  0  0  0  0  0  0
    3.4829  -10.5697   30.2091 N   0  0  0  0  0  0  0  0  0  0  0  0
   -0.3363   -6.1172   27.5628 C   0  0  0  0  0  0  0  0  0  0  0  0
    3.0331   -7.4400   27.6362 C   0  0  0  0  0  0  0  0  0  0  0  0
    5.4553   -8.5933   27.9644 C   0  0  0  0  0  0  0  0  0  0  0  0
   -2.3870  -12.8440   19.2512 C   0  0  0  0  0  0  0  0  0  0  0  0
    0.5331   -7.6964   16.2751 C   0  0  0  0  0  0  0  0  0  0  0  0
   -0.6740  -10.8737   18.0482 C   0  0  0  0  0  0  0  0  0  0  0  0
    5.6751  -10.5870   29.7637 O   0  0  0  0  0  0  0  0  0  0  0  0
    1.7612   -5.6483   26.7172 C   0  0  0  0  0  0  0  0  0  0  0  0
    0.2221   -9.8326   17.4055 C   0  0  0  0  0  0  0  0  0  0  0  0
    4.3850   -9.0730   28.6745 C   0  0  0  0  0  0  0  0  0  0  0  0
  1  7  4  0
  1 22  4  0
  2 17  4  0
  2 20  4  0
  2 28  4  0
  3  6  1  0
  3 19  1  0
  4 19  1  0
  4 26  1  0
  5 17  4  0
  5 18  4  0
  6 20  1  0
  6 26  1  0
  7 24  4  0
  8 15  4  0
  8 24  4  0
  9 14  4  0
  9 21  4  0
 10 12  4  0
 10 27  4  0
 11 12  4  0
 11 23  4  0
 13 23  4  0
 13 27  4  0
 14 20  4  0
 15 22  4  0
 16 18  4  0
 16 25  2  0
 16 28  4  0
 21 28  4  0
 24 27  1  0
M  END
$$$$

 Created by Python create_sdf_string function

 28 31  0  0  0  0  0  0  0  0999 V2000
   -1.0054  -13.0622   19.1198 C   0  0  0  0  0  0  0  0  0  0  0  0
    3.1478   -8.5360   28.5161 C   0  0  0  0  0  0  0  0  0  0  0  0
    0.5798   -7.1906   27.9330 C   0  0  0  0  0  0  0  0  0  0  0  0
    0.3978   -5.1561   26.6955 C   0  0  0  0  0  0  0  0  0  0  0  0
    2.3063  -10.0533   30.0125 C   0  0  0  0  0  0  0  0  0  0  0  0
    1.8591   -6.8254   27.4685 N   0  0  0  0  0  0  0  0  0  0  0  0
   -0.2167  -12.1055   18.5568 C   0  0  0  0  0  0  0  0  0  0  0  0
   -2.0661  -10.6994   18.1916 C   0  0  0  0  0  0  0  0  0  0  0  0
    5.2703   -7.5691   27.1123 C   0  0  0  0  0  0  0  0  0  0  0  0
    1.6204   -9.9887   17.2935 C   0  0  0  0  0  0  0  0  0  0  0  0
    1.8931   -7.9265   16.2047 C   0  0  0  0  0  0  0  0  0  0  0  0
    2.4396   -9.0801   16.7132 C   0  0  0  0  0  0  0  0  0  0  0  0
   -0.2575   -8.6234   16.8582 C   0  0  0  0  0  0  0  0  0  0  0  0
    4.0614   -7.0367   27.0106 N   0  0  0  0  0  0  0  0  0  0  0  0
   -2.9133  -11.6279   18.7578 C   0  0  0  0  0  0  0  0  0  0  0  0
    4.5688  -10.1291   29.5758 C   0  0  0  0  0  0  0  0  0  0  0  0
    2.1008   -9.0410   29.1852 N   0  0  0  0  0  0  0  0  0  0  0  0
    3.4829  -10.5697   30.2091 N   0  0  0  0  0  0  0  0  0  0  0  0
   -0.3363   -6.1172   27.5628 C   0  0  0  0  0  0  0  0  0  0  0  0
    3.0331   -7.4400   27.6362 C   0  0  0  0  0  0  0  0  0  0  0  0
    5.4553   -8.5933   27.9644 C   0  0  0  0  0  0  0  0  0  0  0  0
   -2.3870  -12.8440   19.2512 C   0  0  0  0  0  0  0  0  0  0  0  0
    0.5331   -7.6964   16.2751 C   0  0  0  0  0  0  0  0  0  0  0  0
   -0.6740  -10.8737   18.0482 C   0  0  0  0  0  0  0  0  0  0  0  0
    5.6751  -10.5870   29.7637 O   0  0  0  0  0  0  0  0  0  0  0  0
    1.7612   -5.6483   26.7172 C   0  0  0  0  0  0  0  0  0  0  0  0
    0.2221   -9.8326   17.4055 C   0  0  0  0  0  0  0  0  0  0  0  0
    4.3850   -9.0730   28.6745 C   0  0  0  0  0  0  0  0  0  0  0  0
  1  7  4  0
  1 22  4  0
  2 17  4  0
  2 20  4  0
  2 28  4  0
  3  6  1  0
  3 19  1  0
  4 19  1  0
  4 26  1  0
  5 17  4  0
  5 18  4  0
  6 20  1  0
  6 26  1  0
  7 24  4  0
  8 15  4  0
  8 24  4  0
  9 14  4  0
  9 21  4  0
 10 12  4  0
 10 27  4  0
 11 12  4  0
 11 23  4  0
 13 23  4  0
 13 27  4  0
 14 20  4  0
 15 22  4  0
 16 18  4  0
 16 25  2  0
 16 28  4  0
 21 28  4  0
 24 27  1  0
M  END
$$$$

 Created by Python create_sdf_string function

 28 31  0  0  0  0  0  0  0  0999 V2000
   -1.0054  -13.0622   19.1198 C   0  0  0  0  0  0  0  0  0  0  0  0
    3.1478   -8.5360   28.5161 C   0  0  0  0  0  0  0  0  0  0  0  0
    0.5798   -7.1906   27.9330 C   0  0  0  0  0  0  0  0  0  0  0  0
    0.3978   -5.1561   26.6955 C   0  0  0  0  0  0  0  0  0  0  0  0
    2.3063  -10.0533   30.0125 C   0  0  0  0  0  0  0  0  0  0  0  0
    1.8591   -6.8254   27.4685 N   0  0  0  0  0  0  0  0  0  0  0  0
   -0.2167  -12.1055   18.5568 C   0  0  0  0  0  0  0  0  0  0  0  0
   -2.0661  -10.6994   18.1916 C   0  0  0  0  0  0  0  0  0  0  0  0
    5.2703   -7.5691   27.1123 C   0  0  0  0  0  0  0  0  0  0  0  0
    1.6204   -9.9887   17.2935 C   0  0  0  0  0  0  0  0  0  0  0  0
    1.8931   -7.9265   16.2047 C   0  0  0  0  0  0  0  0  0  0  0  0
    2.4396   -9.0801   16.7132 C   0  0  0  0  0  0  0  0  0  0  0  0
   -0.2575   -8.6234   16.8582 C   0  0  0  0  0  0  0  0  0  0  0  0
    4.0614   -7.0367   27.0106 N   0  0  0  0  0  0  0  0  0  0  0  0
   -2.9133  -11.6279   18.7578 C   0  0  0  0  0  0  0  0  0  0  0  0
    4.5688  -10.1291   29.5758 C   0  0  0  0  0  0  0  0  0  0  0  0
    2.1008   -9.0410   29.1852 N   0  0  0  0  0  0  0  0  0  0  0  0
    3.4829  -10.5697   30.2091 N   0  0  0  0  0  0  0  0  0  0  0  0
   -0.3363   -6.1172   27.5628 C   0  0  0  0  0  0  0  0  0  0  0  0
    3.0331   -7.4400   27.6362 C   0  0  0  0  0  0  0  0  0  0  0  0
    5.4553   -8.5933   27.9644 C   0  0  0  0  0  0  0  0  0  0  0  0
   -2.3870  -12.8440   19.2512 C   0  0  0  0  0  0  0  0  0  0  0  0
    0.5331   -7.6964   16.2751 C   0  0  0  0  0  0  0  0  0  0  0  0
   -0.6740  -10.8737   18.0482 C   0  0  0  0  0  0  0  0  0  0  0  0
    5.6751  -10.5870   29.7637 O   0  0  0  0  0  0  0  0  0  0  0  0
    1.7612   -5.6483   26.7172 C   0  0  0  0  0  0  0  0  0  0  0  0
    0.2221   -9.8326   17.4055 C   0  0  0  0  0  0  0  0  0  0  0  0
    4.3850   -9.0730   28.6745 C   0  0  0  0  0  0  0  0  0  0  0  0
  1  7  4  0
  1 22  4  0
  2 17  4  0
  2 20  4  0
  2 28  4  0
  3  6  1  0
  3 19  1  0
  4 19  1  0
  4 26  1  0
  5 17  4  0
  5 18  4  0
  6 20  1  0
  6 26  1  0
  7 24  4  0
  8 15  4  0
  8 24  4  0
  9 14  4  0
  9 21  4  0
 10 12  4  0
 10 27  4  0
 11 12  4  0
 11 23  4  0
 13 23  4  0
 13 27  4  0
 14 20  4  0
 15 22  4  0
 16 18  4  0
 16 25  2  0
 16 28  4  0
 21 28  4  0
 24 27  1  0
M  END
$$$$

 Created by Python create_sdf_string function

 28 31  0  0  0  0  0  0  0  0999 V2000
   -1.0054  -13.0622   19.1198 C   0  0  0  0  0  0  0  0  0  0  0  0
    3.1478   -8.5360   28.5161 C   0  0  0  0  0  0  0  0  0  0  0  0
    0.5798   -7.1906   27.9330 C   0  0  0  0  0  0  0  0  0  0  0  0
    0.3978   -5.1561   26.6955 C   0  0  0  0  0  0  0  0  0  0  0  0
    2.3063  -10.0533   30.0125 C   0  0  0  0  0  0  0  0  0  0  0  0
    1.8591   -6.8254   27.4685 N   0  0  0  0  0  0  0  0  0  0  0  0
   -0.2167  -12.1055   18.5568 C   0  0  0  0  0  0  0  0  0  0  0  0
   -2.0661  -10.6994   18.1916 C   0  0  0  0  0  0  0  0  0  0  0  0
    5.2703   -7.5691   27.1123 C   0  0  0  0  0  0  0  0  0  0  0  0
    1.6204   -9.9887   17.2935 C   0  0  0  0  0  0  0  0  0  0  0  0
    1.8931   -7.9265   16.2047 C   0  0  0  0  0  0  0  0  0  0  0  0
    2.4396   -9.0801   16.7132 C   0  0  0  0  0  0  0  0  0  0  0  0
   -0.2575   -8.6234   16.8582 C   0  0  0  0  0  0  0  0  0  0  0  0
    4.0614   -7.0367   27.0106 N   0  0  0  0  0  0  0  0  0  0  0  0
   -2.9133  -11.6279   18.7578 C   0  0  0  0  0  0  0  0  0  0  0  0
    4.5688  -10.1291   29.5758 C   0  0  0  0  0  0  0  0  0  0  0  0
    2.1008   -9.0410   29.1852 N   0  0  0  0  0  0  0  0  0  0  0  0
    3.4829  -10.5697   30.2091 N   0  0  0  0  0  0  0  0  0  0  0  0
   -0.3363   -6.1172   27.5628 C   0  0  0  0  0  0  0  0  0  0  0  0
    3.0331   -7.4400   27.6362 C   0  0  0  0  0  0  0  0  0  0  0  0
    5.4553   -8.5933   27.9644 C   0  0  0  0  0  0  0  0  0  0  0  0
   -2.3870  -12.8440   19.2512 C   0  0  0  0  0  0  0  0  0  0  0  0
    0.5331   -7.6964   16.2751 C   0  0  0  0  0  0  0  0  0  0  0  0
   -0.6740  -10.8737   18.0482 C   0  0  0  0  0  0  0  0  0  0  0  0
    5.6751  -10.5870   29.7637 O   0  0  0  0  0  0  0  0  0  0  0  0
    1.7612   -5.6483   26.7172 C   0  0  0  0  0  0  0  0  0  0  0  0
    0.2221   -9.8326   17.4055 C   0  0  0  0  0  0  0  0  0  0  0  0
    4.3850   -9.0730   28.6745 C   0  0  0  0  0  0  0  0  0  0  0  0
  1  7  4  0
  1 22  4  0
  2 17  4  0
  2 20  4  0
  2 28  4  0
  3  6  1  0
  3 19  1  0
  4 19  1  0
  4 26  1  0
  5 17  4  0
  5 18  4  0
  6 20  1  0
  6 26  1  0
  7 24  4  0
  8 15  4  0
  8 24  4  0
  9 14  4  0
  9 21  4  0
 10 12  4  0
 10 27  4  0
 11 12  4  0
 11 23  4  0
 13 23  4  0
 13 27  4  0
 14 20  4  0
 15 22  4  0
 16 18  4  0
 16 25  2  0
 16 28  4  0
 21 28  4  0
 24 27  1  0
M  END
$$$$

 Created by Python create_sdf_string function

 28 31  0  0  0  0  0  0  0  0999 V2000
   -1.0054  -13.0622   19.1198 C   0  0  0  0  0  0  0  0  0  0  0  0
    3.1478   -8.5360   28.5161 C   0  0  0  0  0  0  0  0  0  0  0  0
    0.5798   -7.1906   27.9330 C   0  0  0  0  0  0  0  0  0  0  0  0
    0.3978   -5.1561   26.6955 C   0  0  0  0  0  0  0  0  0  0  0  0
    2.3063  -10.0533   30.0125 C   0  0  0  0  0  0  0  0  0  0  0  0
    1.8591   -6.8254   27.4685 N   0  0  0  0  0  0  0  0  0  0  0  0
   -0.2167  -12.1055   18.5568 C   0  0  0  0  0  0  0  0  0  0  0  0
   -2.0661  -10.6994   18.1916 C   0  0  0  0  0  0  0  0  0  0  0  0
    5.2703   -7.5691   27.1123 C   0  0  0  0  0  0  0  0  0  0  0  0
    1.6204   -9.9887   17.2935 C   0  0  0  0  0  0  0  0  0  0  0  0
    1.8931   -7.9265   16.2047 C   0  0  0  0  0  0  0  0  0  0  0  0
    2.4396   -9.0801   16.7132 C   0  0  0  0  0  0  0  0  0  0  0  0
   -0.2575   -8.6234   16.8582 C   0  0  0  0  0  0  0  0  0  0  0  0
    4.0614   -7.0367   27.0106 N   0  0  0  0  0  0  0  0  0  0  0  0
   -2.9133  -11.6279   18.7578 C   0  0  0  0  0  0  0  0  0  0  0  0
    4.5688  -10.1291   29.5758 C   0  0  0  0  0  0  0  0  0  0  0  0
    2.1008   -9.0410   29.1852 N   0  0  0  0  0  0  0  0  0  0  0  0
    3.4829  -10.5697   30.2091 N   0  0  0  0  0  0  0  0  0  0  0  0
   -0.3363   -6.1172   27.5628 C   0  0  0  0  0  0  0  0  0  0  0  0
    3.0331   -7.4400   27.6362 C   0  0  0  0  0  0  0  0  0  0  0  0
    5.4553   -8.5933   27.9644 C   0  0  0  0  0  0  0  0  0  0  0  0
   -2.3870  -12.8440   19.2512 C   0  0  0  0  0  0  0  0  0  0  0  0
    0.5331   -7.6964   16.2751 C   0  0  0  0  0  0  0  0  0  0  0  0
   -0.6740  -10.8737   18.0482 C   0  0  0  0  0  0  0  0  0  0  0  0
    5.6751  -10.5870   29.7637 O   0  0  0  0  0  0  0  0  0  0  0  0
    1.7612   -5.6483   26.7172 C   0  0  0  0  0  0  0  0  0  0  0  0
    0.2221   -9.8326   17.4055 C   0  0  0  0  0  0  0  0  0  0  0  0
    4.3850   -9.0730   28.6745 C   0  0  0  0  0  0  0  0  0  0  0  0
  1  7  4  0
  1 22  4  0
  2 17  4  0
  2 20  4  0
  2 28  4  0
  3  6  1  0
  3 19  1  0
  4 19  1  0
  4 26  1  0
  5 17  4  0
  5 18  4  0
  6 20  1  0
  6 26  1  0
  7 24  4  0
  8 15  4  0
  8 24  4  0
  9 14  4  0
  9 21  4  0
 10 12  4  0
 10 27  4  0
 11 12  4  0
 11 23  4  0
 13 23  4  0
 13 27  4  0
 14 20  4  0
 15 22  4  0
 16 18  4  0
 16 25  2  0
 16 28  4  0
 21 28  4  0
 24 27  1  0
M  END
$$$$

 Created by Python create_sdf_string function

 28 31  0  0  0  0  0  0  0  0999 V2000
   -1.0054  -13.0622   19.1198 C   0  0  0  0  0  0  0  0  0  0  0  0
    3.1478   -8.5360   28.5161 C   0  0  0  0  0  0  0  0  0  0  0  0
    0.5798   -7.1906   27.9330 C   0  0  0  0  0  0  0  0  0  0  0  0
    0.3978   -5.1561   26.6955 C   0  0  0  0  0  0  0  0  0  0  0  0
    2.3063  -10.0533   30.0125 C   0  0  0  0  0  0  0  0  0  0  0  0
    1.8591   -6.8254   27.4685 N   0  0  0  0  0  0  0  0  0  0  0  0
   -0.2167  -12.1055   18.5568 C   0  0  0  0  0  0  0  0  0  0  0  0
   -2.0661  -10.6994   18.1916 C   0  0  0  0  0  0  0  0  0  0  0  0
    5.2703   -7.5691   27.1123 C   0  0  0  0  0  0  0  0  0  0  0  0
    1.6204   -9.9887   17.2935 C   0  0  0  0  0  0  0  0  0  0  0  0
    1.8931   -7.9265   16.2047 C   0  0  0  0  0  0  0  0  0  0  0  0
    2.4396   -9.0801   16.7132 C   0  0  0  0  0  0  0  0  0  0  0  0
   -0.2575   -8.6234   16.8582 C   0  0  0  0  0  0  0  0  0  0  0  0
    4.0614   -7.0367   27.0106 N   0  0  0  0  0  0  0  0  0  0  0  0
   -2.9133  -11.6279   18.7578 C   0  0  0  0  0  0  0  0  0  0  0  0
    4.5688  -10.1291   29.5758 C   0  0  0  0  0  0  0  0  0  0  0  0
    2.1008   -9.0410   29.1852 N   0  0  0  0  0  0  0  0  0  0  0  0
    3.4829  -10.5697   30.2091 N   0  0  0  0  0  0  0  0  0  0  0  0
   -0.3363   -6.1172   27.5628 C   0  0  0  0  0  0  0  0  0  0  0  0
    3.0331   -7.4400   27.6362 C   0  0  0  0  0  0  0  0  0  0  0  0
    5.4553   -8.5933   27.9644 C   0  0  0  0  0  0  0  0  0  0  0  0
   -2.3870  -12.8440   19.2512 C   0  0  0  0  0  0  0  0  0  0  0  0
    0.5331   -7.6964   16.2751 C   0  0  0  0  0  0  0  0  0  0  0  0
   -0.6740  -10.8737   18.0482 C   0  0  0  0  0  0  0  0  0  0  0  0
    5.6751  -10.5870   29.7637 O   0  0  0  0  0  0  0  0  0  0  0  0
    1.7612   -5.6483   26.7172 C   0  0  0  0  0  0  0  0  0  0  0  0
    0.2221   -9.8326   17.4055 C   0  0  0  0  0  0  0  0  0  0  0  0
    4.3850   -9.0730   28.6745 C   0  0  0  0  0  0  0  0  0  0  0  0
  1  7  4  0
  1 22  4  0
  2 17  4  0
  2 20  4  0
  2 28  4  0
  3  6  1  0
  3 19  1  0
  4 19  1  0
  4 26  1  0
  5 17  4  0
  5 18  4  0
  6 20  1  0
  6 26  1  0
  7 24  4  0
  8 15  4  0
  8 24  4  0
  9 14  4  0
  9 21  4  0
 10 12  4  0
 10 27  4  0
 11 12  4  0
 11 23  4  0
 13 23  4  0
 13 27  4  0
 14 20  4  0
 15 22  4  0
 16 18  4  0
 16 25  2  0
 16 28  4  0
 21 28  4  0
 24 27  1  0
M  END
$$$$

 Created by Python create_sdf_string function

 28 31  0  0  0  0  0  0  0  0999 V2000
   -1.0054  -13.0622   19.1198 C   0  0  0  0  0  0  0  0  0  0  0  0
    3.1478   -8.5360   28.5161 C   0  0  0  0  0  0  0  0  0  0  0  0
    0.5798   -7.1906   27.9330 C   0  0  0  0  0  0  0  0  0  0  0  0
    0.3978   -5.1561   26.6955 C   0  0  0  0  0  0  0  0  0  0  0  0
    2.3063  -10.0533   30.0125 C   0  0  0  0  0  0  0  0  0  0  0  0
    1.8591   -6.8254   27.4685 N   0  0  0  0  0  0  0  0  0  0  0  0
   -0.2167  -12.1055   18.5568 C   0  0  0  0  0  0  0  0  0  0  0  0
   -2.0661  -10.6994   18.1916 C   0  0  0  0  0  0  0  0  0  0  0  0
    5.2703   -7.5691   27.1123 C   0  0  0  0  0  0  0  0  0  0  0  0
    1.6204   -9.9887   17.2935 C   0  0  0  0  0  0  0  0  0  0  0  0
    1.8931   -7.9265   16.2047 C   0  0  0  0  0  0  0  0  0  0  0  0
    2.4396   -9.0801   16.7132 C   0  0  0  0  0  0  0  0  0  0  0  0
   -0.2575   -8.6234   16.8582 C   0  0  0  0  0  0  0  0  0  0  0  0
    4.0614   -7.0367   27.0106 N   0  0  0  0  0  0  0  0  0  0  0  0
   -2.9133  -11.6279   18.7578 C   0  0  0  0  0  0  0  0  0  0  0  0
    4.5688  -10.1291   29.5758 C   0  0  0  0  0  0  0  0  0  0  0  0
    2.1008   -9.0410   29.1852 N   0  0  0  0  0  0  0  0  0  0  0  0
    3.4829  -10.5697   30.2091 N   0  0  0  0  0  0  0  0  0  0  0  0
   -0.3363   -6.1172   27.5628 C   0  0  0  0  0  0  0  0  0  0  0  0
    3.0331   -7.4400   27.6362 C   0  0  0  0  0  0  0  0  0  0  0  0
    5.4553   -8.5933   27.9644 C   0  0  0  0  0  0  0  0  0  0  0  0
   -2.3870  -12.8440   19.2512 C   0  0  0  0  0  0  0  0  0  0  0  0
    0.5331   -7.6964   16.2751 C   0  0  0  0  0  0  0  0  0  0  0  0
   -0.6740  -10.8737   18.0482 C   0  0  0  0  0  0  0  0  0  0  0  0
    5.6751  -10.5870   29.7637 O   0  0  0  0  0  0  0  0  0  0  0  0
    1.7612   -5.6483   26.7172 C   0  0  0  0  0  0  0  0  0  0  0  0
    0.2221   -9.8326   17.4055 C   0  0  0  0  0  0  0  0  0  0  0  0
    4.3850   -9.0730   28.6745 C   0  0  0  0  0  0  0  0  0  0  0  0
  1  7  4  0
  1 22  4  0
  2 17  4  0
  2 20  4  0
  2 28  4  0
  3  6  1  0
  3 19  1  0
  4 19  1  0
  4 26  1  0
  5 17  4  0
  5 18  4  0
  6 20  1  0
  6 26  1  0
  7 24  4  0
  8 15  4  0
  8 24  4  0
  9 14  4  0
  9 21  4  0
 10 12  4  0
 10 27  4  0
 11 12  4  0
 11 23  4  0
 13 23  4  0
 13 27  4  0
 14 20  4  0
 15 22  4  0
 16 18  4  0
 16 25  2  0
 16 28  4  0
 21 28  4  0
 24 27  1  0
M  END
$$$$

 Created by Python create_sdf_string function

 28 31  0  0  0  0  0  0  0  0999 V2000
   -1.0054  -13.0622   19.1198 C   0  0  0  0  0  0  0  0  0  0  0  0
    3.1478   -8.5360   28.5161 C   0  0  0  0  0  0  0  0  0  0  0  0
    0.5798   -7.1906   27.9330 C   0  0  0  0  0  0  0  0  0  0  0  0
    0.3978   -5.1561   26.6955 C   0  0  0  0  0  0  0  0  0  0  0  0
    2.3063  -10.0533   30.0125 C   0  0  0  0  0  0  0  0  0  0  0  0
    1.8591   -6.8254   27.4685 N   0  0  0  0  0  0  0  0  0  0  0  0
   -0.2167  -12.1055   18.5568 C   0  0  0  0  0  0  0  0  0  0  0  0
   -2.0661  -10.6994   18.1916 C   0  0  0  0  0  0  0  0  0  0  0  0
    5.2703   -7.5691   27.1123 C   0  0  0  0  0  0  0  0  0  0  0  0
    1.6204   -9.9887   17.2935 C   0  0  0  0  0  0  0  0  0  0  0  0
    1.8931   -7.9265   16.2047 C   0  0  0  0  0  0  0  0  0  0  0  0
    2.4396   -9.0801   16.7132 C   0  0  0  0  0  0  0  0  0  0  0  0
   -0.2575   -8.6234   16.8582 C   0  0  0  0  0  0  0  0  0  0  0  0
    4.0614   -7.0367   27.0106 N   0  0  0  0  0  0  0  0  0  0  0  0
   -2.9133  -11.6279   18.7578 C   0  0  0  0  0  0  0  0  0  0  0  0
    4.5688  -10.1291   29.5758 C   0  0  0  0  0  0  0  0  0  0  0  0
    2.1008   -9.0410   29.1852 N   0  0  0  0  0  0  0  0  0  0  0  0
    3.4829  -10.5697   30.2091 N   0  0  0  0  0  0  0  0  0  0  0  0
   -0.3363   -6.1172   27.5628 C   0  0  0  0  0  0  0  0  0  0  0  0
    3.0331   -7.4400   27.6362 C   0  0  0  0  0  0  0  0  0  0  0  0
    5.4553   -8.5933   27.9644 C   0  0  0  0  0  0  0  0  0  0  0  0
   -2.3870  -12.8440   19.2512 C   0  0  0  0  0  0  0  0  0  0  0  0
    0.5331   -7.6964   16.2751 C   0  0  0  0  0  0  0  0  0  0  0  0
   -0.6740  -10.8737   18.0482 C   0  0  0  0  0  0  0  0  0  0  0  0
    5.6751  -10.5870   29.7637 O   0  0  0  0  0  0  0  0  0  0  0  0
    1.7612   -5.6483   26.7172 C   0  0  0  0  0  0  0  0  0  0  0  0
    0.2221   -9.8326   17.4055 C   0  0  0  0  0  0  0  0  0  0  0  0
    4.3850   -9.0730   28.6745 C   0  0  0  0  0  0  0  0  0  0  0  0
  1  7  4  0
  1 22  4  0
  2 17  4  0
  2 20  4  0
  2 28  4  0
  3  6  1  0
  3 19  1  0
  4 19  1  0
  4 26  1  0
  5 17  4  0
  5 18  4  0
  6 20  1  0
  6 26  1  0
  7 24  4  0
  8 15  4  0
  8 24  4  0
  9 14  4  0
  9 21  4  0
 10 12  4  0
 10 27  4  0
 11 12  4  0
 11 23  4  0
 13 23  4  0
 13 27  4  0
 14 20  4  0
 15 22  4  0
 16 18  4  0
 16 25  2  0
 16 28  4  0
 21 28  4  0
 24 27  1  0
M  END
$$$$

 Created by Python create_sdf_string function

 28 31  0  0  0  0  0  0  0  0999 V2000
   -1.0054  -13.0622   19.1198 C   0  0  0  0  0  0  0  0  0  0  0  0
    3.1478   -8.5360   28.5161 C   0  0  0  0  0  0  0  0  0  0  0  0
    0.5798   -7.1906   27.9330 C   0  0  0  0  0  0  0  0  0  0  0  0
    0.3978   -5.1561   26.6955 C   0  0  0  0  0  0  0  0  0  0  0  0
    2.3063  -10.0533   30.0125 C   0  0  0  0  0  0  0  0  0  0  0  0
    1.8591   -6.8254   27.4685 N   0  0  0  0  0  0  0  0  0  0  0  0
   -0.2167  -12.1055   18.5568 C   0  0  0  0  0  0  0  0  0  0  0  0
   -2.0661  -10.6994   18.1916 C   0  0  0  0  0  0  0  0  0  0  0  0
    5.2703   -7.5691   27.1123 C   0  0  0  0  0  0  0  0  0  0  0  0
    1.6204   -9.9887   17.2935 C   0  0  0  0  0  0  0  0  0  0  0  0
    1.8931   -7.9265   16.2047 C   0  0  0  0  0  0  0  0  0  0  0  0
    2.4396   -9.0801   16.7132 C   0  0  0  0  0  0  0  0  0  0  0  0
   -0.2575   -8.6234   16.8582 C   0  0  0  0  0  0  0  0  0  0  0  0
    4.0614   -7.0367   27.0106 N   0  0  0  0  0  0  0  0  0  0  0  0
   -2.9133  -11.6279   18.7578 C   0  0  0  0  0  0  0  0  0  0  0  0
    4.5688  -10.1291   29.5758 C   0  0  0  0  0  0  0  0  0  0  0  0
    2.1008   -9.0410   29.1852 N   0  0  0  0  0  0  0  0  0  0  0  0
    3.4829  -10.5697   30.2091 N   0  0  0  0  0  0  0  0  0  0  0  0
   -0.3363   -6.1172   27.5628 C   0  0  0  0  0  0  0  0  0  0  0  0
    3.0331   -7.4400   27.6362 C   0  0  0  0  0  0  0  0  0  0  0  0
    5.4553   -8.5933   27.9644 C   0  0  0  0  0  0  0  0  0  0  0  0
   -2.3870  -12.8440   19.2512 C   0  0  0  0  0  0  0  0  0  0  0  0
    0.5331   -7.6964   16.2751 C   0  0  0  0  0  0  0  0  0  0  0  0
   -0.6740  -10.8737   18.0482 C   0  0  0  0  0  0  0  0  0  0  0  0
    5.6751  -10.5870   29.7637 O   0  0  0  0  0  0  0  0  0  0  0  0
    1.7612   -5.6483   26.7172 C   0  0  0  0  0  0  0  0  0  0  0  0
    0.2221   -9.8326   17.4055 C   0  0  0  0  0  0  0  0  0  0  0  0
    4.3850   -9.0730   28.6745 C   0  0  0  0  0  0  0  0  0  0  0  0
  1  7  4  0
  1 22  4  0
  2 17  4  0
  2 20  4  0
  2 28  4  0
  3  6  1  0
  3 19  1  0
  4 19  1  0
  4 26  1  0
  5 17  4  0
  5 18  4  0
  6 20  1  0
  6 26  1  0
  7 24  4  0
  8 15  4  0
  8 24  4  0
  9 14  4  0
  9 21  4  0
 10 12  4  0
 10 27  4  0
 11 12  4  0
 11 23  4  0
 13 23  4  0
 13 27  4  0
 14 20  4  0
 15 22  4  0
 16 18  4  0
 16 25  2  0
 16 28  4  0
 21 28  4  0
 24 27  1  0
M  END
$$$$

 Created by Python create_sdf_string function

 28 31  0  0  0  0  0  0  0  0999 V2000
   -1.0054  -13.0622   19.1198 C   0  0  0  0  0  0  0  0  0  0  0  0
    3.1478   -8.5360   28.5161 C   0  0  0  0  0  0  0  0  0  0  0  0
    0.5798   -7.1906   27.9330 C   0  0  0  0  0  0  0  0  0  0  0  0
    0.3978   -5.1561   26.6955 C   0  0  0  0  0  0  0  0  0  0  0  0
    2.3063  -10.0533   30.0125 C   0  0  0  0  0  0  0  0  0  0  0  0
    1.8591   -6.8254   27.4685 N   0  0  0  0  0  0  0  0  0  0  0  0
   -0.2167  -12.1055   18.5568 C   0  0  0  0  0  0  0  0  0  0  0  0
   -2.0661  -10.6994   18.1916 C   0  0  0  0  0  0  0  0  0  0  0  0
    5.2703   -7.5691   27.1123 C   0  0  0  0  0  0  0  0  0  0  0  0
    1.6204   -9.9887   17.2935 C   0  0  0  0  0  0  0  0  0  0  0  0
    1.8931   -7.9265   16.2047 C   0  0  0  0  0  0  0  0  0  0  0  0
    2.4396   -9.0801   16.7132 C   0  0  0  0  0  0  0  0  0  0  0  0
   -0.2575   -8.6234   16.8582 C   0  0  0  0  0  0  0  0  0  0  0  0
    4.0614   -7.0367   27.0106 N   0  0  0  0  0  0  0  0  0  0  0  0
   -2.9133  -11.6279   18.7578 C   0  0  0  0  0  0  0  0  0  0  0  0
    4.5688  -10.1291   29.5758 C   0  0  0  0  0  0  0  0  0  0  0  0
    2.1008   -9.0410   29.1852 N   0  0  0  0  0  0  0  0  0  0  0  0
    3.4829  -10.5697   30.2091 N   0  0  0  0  0  0  0  0  0  0  0  0
   -0.3363   -6.1172   27.5628 C   0  0  0  0  0  0  0  0  0  0  0  0
    3.0331   -7.4400   27.6362 C   0  0  0  0  0  0  0  0  0  0  0  0
    5.4553   -8.5933   27.9644 C   0  0  0  0  0  0  0  0  0  0  0  0
   -2.3870  -12.8440   19.2512 C   0  0  0  0  0  0  0  0  0  0  0  0
    0.5331   -7.6964   16.2751 C   0  0  0  0  0  0  0  0  0  0  0  0
   -0.6740  -10.8737   18.0482 C   0  0  0  0  0  0  0  0  0  0  0  0
    5.6751  -10.5870   29.7637 O   0  0  0  0  0  0  0  0  0  0  0  0
    1.7612   -5.6483   26.7172 C   0  0  0  0  0  0  0  0  0  0  0  0
    0.2221   -9.8326   17.4055 C   0  0  0  0  0  0  0  0  0  0  0  0
    4.3850   -9.0730   28.6745 C   0  0  0  0  0  0  0  0  0  0  0  0
  1  7  4  0
  1 22  4  0
  2 17  4  0
  2 20  4  0
  2 28  4  0
  3  6  1  0
  3 19  1  0
  4 19  1  0
  4 26  1  0
  5 17  4  0
  5 18  4  0
  6 20  1  0
  6 26  1  0
  7 24  4  0
  8 15  4  0
  8 24  4  0
  9 14  4  0
  9 21  4  0
 10 12  4  0
 10 27  4  0
 11 12  4  0
 11 23  4  0
 13 23  4  0
 13 27  4  0
 14 20  4  0
 15 22  4  0
 16 18  4  0
 16 25  2  0
 16 28  4  0
 21 28  4  0
 24 27  1  0
M  END
$$$$

 Created by Python create_sdf_string function

 28 31  0  0  0  0  0  0  0  0999 V2000
   -1.0054  -13.0622   19.1198 C   0  0  0  0  0  0  0  0  0  0  0  0
    3.1478   -8.5360   28.5161 C   0  0  0  0  0  0  0  0  0  0  0  0
    0.5798   -7.1906   27.9330 C   0  0  0  0  0  0  0  0  0  0  0  0
    0.3978   -5.1561   26.6955 C   0  0  0  0  0  0  0  0  0  0  0  0
    2.3063  -10.0533   30.0125 C   0  0  0  0  0  0  0  0  0  0  0  0
    1.8591   -6.8254   27.4685 N   0  0  0  0  0  0  0  0  0  0  0  0
   -0.2167  -12.1055   18.5568 C   0  0  0  0  0  0  0  0  0  0  0  0
   -2.0661  -10.6994   18.1916 C   0  0  0  0  0  0  0  0  0  0  0  0
    5.2703   -7.5691   27.1123 C   0  0  0  0  0  0  0  0  0  0  0  0
    1.6204   -9.9887   17.2935 C   0  0  0  0  0  0  0  0  0  0  0  0
    1.8931   -7.9265   16.2047 C   0  0  0  0  0  0  0  0  0  0  0  0
    2.4396   -9.0801   16.7132 C   0  0  0  0  0  0  0  0  0  0  0  0
   -0.2575   -8.6234   16.8582 C   0  0  0  0  0  0  0  0  0  0  0  0
    4.0614   -7.0367   27.0106 N   0  0  0  0  0  0  0  0  0  0  0  0
   -2.9133  -11.6279   18.7578 C   0  0  0  0  0  0  0  0  0  0  0  0
    4.5688  -10.1291   29.5758 C   0  0  0  0  0  0  0  0  0  0  0  0
    2.1008   -9.0410   29.1852 N   0  0  0  0  0  0  0  0  0  0  0  0
    3.4829  -10.5697   30.2091 N   0  0  0  0  0  0  0  0  0  0  0  0
   -0.3363   -6.1172   27.5628 C   0  0  0  0  0  0  0  0  0  0  0  0
    3.0331   -7.4400   27.6362 C   0  0  0  0  0  0  0  0  0  0  0  0
    5.4553   -8.5933   27.9644 C   0  0  0  0  0  0  0  0  0  0  0  0
   -2.3870  -12.8440   19.2512 C   0  0  0  0  0  0  0  0  0  0  0  0
    0.5331   -7.6964   16.2751 C   0  0  0  0  0  0  0  0  0  0  0  0
   -0.6740  -10.8737   18.0482 C   0  0  0  0  0  0  0  0  0  0  0  0
    5.6751  -10.5870   29.7637 O   0  0  0  0  0  0  0  0  0  0  0  0
    1.7612   -5.6483   26.7172 C   0  0  0  0  0  0  0  0  0  0  0  0
    0.2221   -9.8326   17.4055 C   0  0  0  0  0  0  0  0  0  0  0  0
    4.3850   -9.0730   28.6745 C   0  0  0  0  0  0  0  0  0  0  0  0
  1  7  4  0
  1 22  4  0
  2 17  4  0
  2 20  4  0
  2 28  4  0
  3  6  1  0
  3 19  1  0
  4 19  1  0
  4 26  1  0
  5 17  4  0
  5 18  4  0
  6 20  1  0
  6 26  1  0
  7 24  4  0
  8 15  4  0
  8 24  4  0
  9 14  4  0
  9 21  4  0
 10 12  4  0
 10 27  4  0
 11 12  4  0
 11 23  4  0
 13 23  4  0
 13 27  4  0
 14 20  4  0
 15 22  4  0
 16 18  4  0
 16 25  2  0
 16 28  4  0
 21 28  4  0
 24 27  1  0
M  END
$$$$

 Created by Python create_sdf_string function

 28 31  0  0  0  0  0  0  0  0999 V2000
   -1.0054  -13.0622   19.1198 C   0  0  0  0  0  0  0  0  0  0  0  0
    3.1478   -8.5360   28.5161 C   0  0  0  0  0  0  0  0  0  0  0  0
    0.5798   -7.1906   27.9330 C   0  0  0  0  0  0  0  0  0  0  0  0
    0.3978   -5.1561   26.6955 C   0  0  0  0  0  0  0  0  0  0  0  0
    2.3063  -10.0533   30.0125 C   0  0  0  0  0  0  0  0  0  0  0  0
    1.8591   -6.8254   27.4685 N   0  0  0  0  0  0  0  0  0  0  0  0
   -0.2167  -12.1055   18.5568 C   0  0  0  0  0  0  0  0  0  0  0  0
   -2.0661  -10.6994   18.1916 C   0  0  0  0  0  0  0  0  0  0  0  0
    5.2703   -7.5691   27.1123 C   0  0  0  0  0  0  0  0  0  0  0  0
    1.6204   -9.9887   17.2935 C   0  0  0  0  0  0  0  0  0  0  0  0
    1.8931   -7.9265   16.2047 C   0  0  0  0  0  0  0  0  0  0  0  0
    2.4396   -9.0801   16.7132 C   0  0  0  0  0  0  0  0  0  0  0  0
   -0.2575   -8.6234   16.8582 C   0  0  0  0  0  0  0  0  0  0  0  0
    4.0614   -7.0367   27.0106 N   0  0  0  0  0  0  0  0  0  0  0  0
   -2.9133  -11.6279   18.7578 C   0  0  0  0  0  0  0  0  0  0  0  0
    4.5688  -10.1291   29.5758 C   0  0  0  0  0  0  0  0  0  0  0  0
    2.1008   -9.0410   29.1852 N   0  0  0  0  0  0  0  0  0  0  0  0
    3.4829  -10.5697   30.2091 N   0  0  0  0  0  0  0  0  0  0  0  0
   -0.3363   -6.1172   27.5628 C   0  0  0  0  0  0  0  0  0  0  0  0
    3.0331   -7.4400   27.6362 C   0  0  0  0  0  0  0  0  0  0  0  0
    5.4553   -8.5933   27.9644 C   0  0  0  0  0  0  0  0  0  0  0  0
   -2.3870  -12.8440   19.2512 C   0  0  0  0  0  0  0  0  0  0  0  0
    0.5331   -7.6964   16.2751 C   0  0  0  0  0  0  0  0  0  0  0  0
   -0.6740  -10.8737   18.0482 C   0  0  0  0  0  0  0  0  0  0  0  0
    5.6751  -10.5870   29.7637 O   0  0  0  0  0  0  0  0  0  0  0  0
    1.7612   -5.6483   26.7172 C   0  0  0  0  0  0  0  0  0  0  0  0
    0.2221   -9.8326   17.4055 C   0  0  0  0  0  0  0  0  0  0  0  0
    4.3850   -9.0730   28.6745 C   0  0  0  0  0  0  0  0  0  0  0  0
  1  7  4  0
  1 22  4  0
  2 17  4  0
  2 20  4  0
  2 28  4  0
  3  6  1  0
  3 19  1  0
  4 19  1  0
  4 26  1  0
  5 17  4  0
  5 18  4  0
  6 20  1  0
  6 26  1  0
  7 24  4  0
  8 15  4  0
  8 24  4  0
  9 14  4  0
  9 21  4  0
 10 12  4  0
 10 27  4  0
 11 12  4  0
 11 23  4  0
 13 23  4  0
 13 27  4  0
 14 20  4  0
 15 22  4  0
 16 18  4  0
 16 25  2  0
 16 28  4  0
 21 28  4  0
 24 27  1  0
M  END
$$$$

 Created by Python create_sdf_string function

 28 31  0  0  0  0  0  0  0  0999 V2000
   -1.0054  -13.0622   19.1198 C   0  0  0  0  0  0  0  0  0  0  0  0
    3.1478   -8.5360   28.5161 C   0  0  0  0  0  0  0  0  0  0  0  0
    0.5798   -7.1906   27.9330 C   0  0  0  0  0  0  0  0  0  0  0  0
    0.3978   -5.1561   26.6955 C   0  0  0  0  0  0  0  0  0  0  0  0
    2.3063  -10.0533   30.0125 C   0  0  0  0  0  0  0  0  0  0  0  0
    1.8591   -6.8254   27.4685 N   0  0  0  0  0  0  0  0  0  0  0  0
   -0.2167  -12.1055   18.5568 C   0  0  0  0  0  0  0  0  0  0  0  0
   -2.0661  -10.6994   18.1916 C   0  0  0  0  0  0  0  0  0  0  0  0
    5.2703   -7.5691   27.1123 C   0  0  0  0  0  0  0  0  0  0  0  0
    1.6204   -9.9887   17.2935 C   0  0  0  0  0  0  0  0  0  0  0  0
    1.8931   -7.9265   16.2047 C   0  0  0  0  0  0  0  0  0  0  0  0
    2.4396   -9.0801   16.7132 C   0  0  0  0  0  0  0  0  0  0  0  0
   -0.2575   -8.6234   16.8582 C   0  0  0  0  0  0  0  0  0  0  0  0
    4.0614   -7.0367   27.0106 N   0  0  0  0  0  0  0  0  0  0  0  0
   -2.9133  -11.6279   18.7578 C   0  0  0  0  0  0  0  0  0  0  0  0
    4.5688  -10.1291   29.5758 C   0  0  0  0  0  0  0  0  0  0  0  0
    2.1008   -9.0410   29.1852 N   0  0  0  0  0  0  0  0  0  0  0  0
    3.4829  -10.5697   30.2091 N   0  0  0  0  0  0  0  0  0  0  0  0
   -0.3363   -6.1172   27.5628 C   0  0  0  0  0  0  0  0  0  0  0  0
    3.0331   -7.4400   27.6362 C   0  0  0  0  0  0  0  0  0  0  0  0
    5.4553   -8.5933   27.9644 C   0  0  0  0  0  0  0  0  0  0  0  0
   -2.3870  -12.8440   19.2512 C   0  0  0  0  0  0  0  0  0  0  0  0
    0.5331   -7.6964   16.2751 C   0  0  0  0  0  0  0  0  0  0  0  0
   -0.6740  -10.8737   18.0482 C   0  0  0  0  0  0  0  0  0  0  0  0
    5.6751  -10.5870   29.7637 O   0  0  0  0  0  0  0  0  0  0  0  0
    1.7612   -5.6483   26.7172 C   0  0  0  0  0  0  0  0  0  0  0  0
    0.2221   -9.8326   17.4055 C   0  0  0  0  0  0  0  0  0  0  0  0
    4.3850   -9.0730   28.6745 C   0  0  0  0  0  0  0  0  0  0  0  0
  1  7  4  0
  1 22  4  0
  2 17  4  0
  2 20  4  0
  2 28  4  0
  3  6  1  0
  3 19  1  0
  4 19  1  0
  4 26  1  0
  5 17  4  0
  5 18  4  0
  6 20  1  0
  6 26  1  0
  7 24  4  0
  8 15  4  0
  8 24  4  0
  9 14  4  0
  9 21  4  0
 10 12  4  0
 10 27  4  0
 11 12  4  0
 11 23  4  0
 13 23  4  0
 13 27  4  0
 14 20  4  0
 15 22  4  0
 16 18  4  0
 16 25  2  0
 16 28  4  0
 21 28  4  0
 24 27  1  0
M  END
$$$$

 Created by Python create_sdf_string function

 28 31  0  0  0  0  0  0  0  0999 V2000
   -1.0054  -13.0622   19.1198 C   0  0  0  0  0  0  0  0  0  0  0  0
    3.1478   -8.5360   28.5161 C   0  0  0  0  0  0  0  0  0  0  0  0
    0.5798   -7.1906   27.9330 C   0  0  0  0  0  0  0  0  0  0  0  0
    0.3978   -5.1561   26.6955 C   0  0  0  0  0  0  0  0  0  0  0  0
    2.3063  -10.0533   30.0125 C   0  0  0  0  0  0  0  0  0  0  0  0
    1.8591   -6.8254   27.4685 N   0  0  0  0  0  0  0  0  0  0  0  0
   -0.2167  -12.1055   18.5568 C   0  0  0  0  0  0  0  0  0  0  0  0
   -2.0661  -10.6994   18.1916 C   0  0  0  0  0  0  0  0  0  0  0  0
    5.2703   -7.5691   27.1123 C   0  0  0  0  0  0  0  0  0  0  0  0
    1.6204   -9.9887   17.2935 C   0  0  0  0  0  0  0  0  0  0  0  0
    1.8931   -7.9265   16.2047 C   0  0  0  0  0  0  0  0  0  0  0  0
    2.4396   -9.0801   16.7132 C   0  0  0  0  0  0  0  0  0  0  0  0
   -0.2575   -8.6234   16.8582 C   0  0  0  0  0  0  0  0  0  0  0  0
    4.0614   -7.0367   27.0106 N   0  0  0  0  0  0  0  0  0  0  0  0
   -2.9133  -11.6279   18.7578 C   0  0  0  0  0  0  0  0  0  0  0  0
    4.5688  -10.1291   29.5758 C   0  0  0  0  0  0  0  0  0  0  0  0
    2.1008   -9.0410   29.1852 N   0  0  0  0  0  0  0  0  0  0  0  0
    3.4829  -10.5697   30.2091 N   0  0  0  0  0  0  0  0  0  0  0  0
   -0.3363   -6.1172   27.5628 C   0  0  0  0  0  0  0  0  0  0  0  0
    3.0331   -7.4400   27.6362 C   0  0  0  0  0  0  0  0  0  0  0  0
    5.4553   -8.5933   27.9644 C   0  0  0  0  0  0  0  0  0  0  0  0
   -2.3870  -12.8440   19.2512 C   0  0  0  0  0  0  0  0  0  0  0  0
    0.5331   -7.6964   16.2751 C   0  0  0  0  0  0  0  0  0  0  0  0
   -0.6740  -10.8737   18.0482 C   0  0  0  0  0  0  0  0  0  0  0  0
    5.6751  -10.5870   29.7637 O   0  0  0  0  0  0  0  0  0  0  0  0
    1.7612   -5.6483   26.7172 C   0  0  0  0  0  0  0  0  0  0  0  0
    0.2221   -9.8326   17.4055 C   0  0  0  0  0  0  0  0  0  0  0  0
    4.3850   -9.0730   28.6745 C   0  0  0  0  0  0  0  0  0  0  0  0
  1  7  4  0
  1 22  4  0
  2 17  4  0
  2 20  4  0
  2 28  4  0
  3  6  1  0
  3 19  1  0
  4 19  1  0
  4 26  1  0
  5 17  4  0
  5 18  4  0
  6 20  1  0
  6 26  1  0
  7 24  4  0
  8 15  4  0
  8 24  4  0
  9 14  4  0
  9 21  4  0
 10 12  4  0
 10 27  4  0
 11 12  4  0
 11 23  4  0
 13 23  4  0
 13 27  4  0
 14 20  4  0
 15 22  4  0
 16 18  4  0
 16 25  2  0
 16 28  4  0
 21 28  4  0
 24 27  1  0
M  END
$$$$

 Created by Python create_sdf_string function

 28 31  0  0  0  0  0  0  0  0999 V2000
   -1.0054  -13.0622   19.1198 C   0  0  0  0  0  0  0  0  0  0  0  0
    3.1478   -8.5360   28.5161 C   0  0  0  0  0  0  0  0  0  0  0  0
    0.5798   -7.1906   27.9330 C   0  0  0  0  0  0  0  0  0  0  0  0
    0.3978   -5.1561   26.6955 C   0  0  0  0  0  0  0  0  0  0  0  0
    2.3063  -10.0533   30.0125 C   0  0  0  0  0  0  0  0  0  0  0  0
    1.8591   -6.8254   27.4685 N   0  0  0  0  0  0  0  0  0  0  0  0
   -0.2167  -12.1055   18.5568 C   0  0  0  0  0  0  0  0  0  0  0  0
   -2.0661  -10.6994   18.1916 C   0  0  0  0  0  0  0  0  0  0  0  0
    5.2703   -7.5691   27.1123 C   0  0  0  0  0  0  0  0  0  0  0  0
    1.6204   -9.9887   17.2935 C   0  0  0  0  0  0  0  0  0  0  0  0
    1.8931   -7.9265   16.2047 C   0  0  0  0  0  0  0  0  0  0  0  0
    2.4396   -9.0801   16.7132 C   0  0  0  0  0  0  0  0  0  0  0  0
   -0.2575   -8.6234   16.8582 C   0  0  0  0  0  0  0  0  0  0  0  0
    4.0614   -7.0367   27.0106 N   0  0  0  0  0  0  0  0  0  0  0  0
   -2.9133  -11.6279   18.7578 C   0  0  0  0  0  0  0  0  0  0  0  0
    4.5688  -10.1291   29.5758 C   0  0  0  0  0  0  0  0  0  0  0  0
    2.1008   -9.0410   29.1852 N   0  0  0  0  0  0  0  0  0  0  0  0
    3.4829  -10.5697   30.2091 N   0  0  0  0  0  0  0  0  0  0  0  0
   -0.3363   -6.1172   27.5628 C   0  0  0  0  0  0  0  0  0  0  0  0
    3.0331   -7.4400   27.6362 C   0  0  0  0  0  0  0  0  0  0  0  0
    5.4553   -8.5933   27.9644 C   0  0  0  0  0  0  0  0  0  0  0  0
   -2.3870  -12.8440   19.2512 C   0  0  0  0  0  0  0  0  0  0  0  0
    0.5331   -7.6964   16.2751 C   0  0  0  0  0  0  0  0  0  0  0  0
   -0.6740  -10.8737   18.0482 C   0  0  0  0  0  0  0  0  0  0  0  0
    5.6751  -10.5870   29.7637 O   0  0  0  0  0  0  0  0  0  0  0  0
    1.7612   -5.6483   26.7172 C   0  0  0  0  0  0  0  0  0  0  0  0
    0.2221   -9.8326   17.4055 C   0  0  0  0  0  0  0  0  0  0  0  0
    4.3850   -9.0730   28.6745 C   0  0  0  0  0  0  0  0  0  0  0  0
  1  7  4  0
  1 22  4  0
  2 17  4  0
  2 20  4  0
  2 28  4  0
  3  6  1  0
  3 19  1  0
  4 19  1  0
  4 26  1  0
  5 17  4  0
  5 18  4  0
  6 20  1  0
  6 26  1  0
  7 24  4  0
  8 15  4  0
  8 24  4  0
  9 14  4  0
  9 21  4  0
 10 12  4  0
 10 27  4  0
 11 12  4  0
 11 23  4  0
 13 23  4  0
 13 27  4  0
 14 20  4  0
 15 22  4  0
 16 18  4  0
 16 25  2  0
 16 28  4  0
 21 28  4  0
 24 27  1  0
M  END
$$$$

 Created by Python create_sdf_string function

 28 31  0  0  0  0  0  0  0  0999 V2000
   -1.0054  -13.0622   19.1198 C   0  0  0  0  0  0  0  0  0  0  0  0
    3.1478   -8.5360   28.5161 C   0  0  0  0  0  0  0  0  0  0  0  0
    0.5798   -7.1906   27.9330 C   0  0  0  0  0  0  0  0  0  0  0  0
    0.3978   -5.1561   26.6955 C   0  0  0  0  0  0  0  0  0  0  0  0
    2.3063  -10.0533   30.0125 C   0  0  0  0  0  0  0  0  0  0  0  0
    1.8591   -6.8254   27.4685 N   0  0  0  0  0  0  0  0  0  0  0  0
   -0.2167  -12.1055   18.5568 C   0  0  0  0  0  0  0  0  0  0  0  0
   -2.0661  -10.6994   18.1916 C   0  0  0  0  0  0  0  0  0  0  0  0
    5.2703   -7.5691   27.1123 C   0  0  0  0  0  0  0  0  0  0  0  0
    1.6204   -9.9887   17.2935 C   0  0  0  0  0  0  0  0  0  0  0  0
    1.8931   -7.9265   16.2047 C   0  0  0  0  0  0  0  0  0  0  0  0
    2.4396   -9.0801   16.7132 C   0  0  0  0  0  0  0  0  0  0  0  0
   -0.2575   -8.6234   16.8582 C   0  0  0  0  0  0  0  0  0  0  0  0
    4.0614   -7.0367   27.0106 N   0  0  0  0  0  0  0  0  0  0  0  0
   -2.9133  -11.6279   18.7578 C   0  0  0  0  0  0  0  0  0  0  0  0
    4.5688  -10.1291   29.5758 C   0  0  0  0  0  0  0  0  0  0  0  0
    2.1008   -9.0410   29.1852 N   0  0  0  0  0  0  0  0  0  0  0  0
    3.4829  -10.5697   30.2091 N   0  0  0  0  0  0  0  0  0  0  0  0
   -0.3363   -6.1172   27.5628 C   0  0  0  0  0  0  0  0  0  0  0  0
    3.0331   -7.4400   27.6362 C   0  0  0  0  0  0  0  0  0  0  0  0
    5.4553   -8.5933   27.9644 C   0  0  0  0  0  0  0  0  0  0  0  0
   -2.3870  -12.8440   19.2512 C   0  0  0  0  0  0  0  0  0  0  0  0
    0.5331   -7.6964   16.2751 C   0  0  0  0  0  0  0  0  0  0  0  0
   -0.6740  -10.8737   18.0482 C   0  0  0  0  0  0  0  0  0  0  0  0
    5.6751  -10.5870   29.7637 O   0  0  0  0  0  0  0  0  0  0  0  0
    1.7612   -5.6483   26.7172 C   0  0  0  0  0  0  0  0  0  0  0  0
    0.2221   -9.8326   17.4055 C   0  0  0  0  0  0  0  0  0  0  0  0
    4.3850   -9.0730   28.6745 C   0  0  0  0  0  0  0  0  0  0  0  0
  1  7  4  0
  1 22  4  0
  2 17  4  0
  2 20  4  0
  2 28  4  0
  3  6  1  0
  3 19  1  0
  4 19  1  0
  4 26  1  0
  5 17  4  0
  5 18  4  0
  6 20  1  0
  6 26  1  0
  7 24  4  0
  8 15  4  0
  8 24  4  0
  9 14  4  0
  9 21  4  0
 10 12  4  0
 10 27  4  0
 11 12  4  0
 11 23  4  0
 13 23  4  0
 13 27  4  0
 14 20  4  0
 15 22  4  0
 16 18  4  0
 16 25  2  0
 16 28  4  0
 21 28  4  0
 24 27  1  0
M  END
$$$$

 Created by Python create_sdf_string function

 28 31  0  0  0  0  0  0  0  0999 V2000
   -1.0054  -13.0622   19.1198 C   0  0  0  0  0  0  0  0  0  0  0  0
    3.1478   -8.5360   28.5161 C   0  0  0  0  0  0  0  0  0  0  0  0
    0.5798   -7.1906   27.9330 C   0  0  0  0  0  0  0  0  0  0  0  0
    0.3978   -5.1561   26.6955 C   0  0  0  0  0  0  0  0  0  0  0  0
    2.3063  -10.0533   30.0125 C   0  0  0  0  0  0  0  0  0  0  0  0
    1.8591   -6.8254   27.4685 N   0  0  0  0  0  0  0  0  0  0  0  0
   -0.2167  -12.1055   18.5568 C   0  0  0  0  0  0  0  0  0  0  0  0
   -2.0661  -10.6994   18.1916 C   0  0  0  0  0  0  0  0  0  0  0  0
    5.2703   -7.5691   27.1123 C   0  0  0  0  0  0  0  0  0  0  0  0
    1.6204   -9.9887   17.2935 C   0  0  0  0  0  0  0  0  0  0  0  0
    1.8931   -7.9265   16.2047 C   0  0  0  0  0  0  0  0  0  0  0  0
    2.4396   -9.0801   16.7132 C   0  0  0  0  0  0  0  0  0  0  0  0
   -0.2575   -8.6234   16.8582 C   0  0  0  0  0  0  0  0  0  0  0  0
    4.0614   -7.0367   27.0106 N   0  0  0  0  0  0  0  0  0  0  0  0
   -2.9133  -11.6279   18.7578 C   0  0  0  0  0  0  0  0  0  0  0  0
    4.5688  -10.1291   29.5758 C   0  0  0  0  0  0  0  0  0  0  0  0
    2.1008   -9.0410   29.1852 N   0  0  0  0  0  0  0  0  0  0  0  0
    3.4829  -10.5697   30.2091 N   0  0  0  0  0  0  0  0  0  0  0  0
   -0.3363   -6.1172   27.5628 C   0  0  0  0  0  0  0  0  0  0  0  0
    3.0331   -7.4400   27.6362 C   0  0  0  0  0  0  0  0  0  0  0  0
    5.4553   -8.5933   27.9644 C   0  0  0  0  0  0  0  0  0  0  0  0
   -2.3870  -12.8440   19.2512 C   0  0  0  0  0  0  0  0  0  0  0  0
    0.5331   -7.6964   16.2751 C   0  0  0  0  0  0  0  0  0  0  0  0
   -0.6740  -10.8737   18.0482 C   0  0  0  0  0  0  0  0  0  0  0  0
    5.6751  -10.5870   29.7637 O   0  0  0  0  0  0  0  0  0  0  0  0
    1.7612   -5.6483   26.7172 C   0  0  0  0  0  0  0  0  0  0  0  0
    0.2221   -9.8326   17.4055 C   0  0  0  0  0  0  0  0  0  0  0  0
    4.3850   -9.0730   28.6745 C   0  0  0  0  0  0  0  0  0  0  0  0
  1  7  4  0
  1 22  4  0
  2 17  4  0
  2 20  4  0
  2 28  4  0
  3  6  1  0
  3 19  1  0
  4 19  1  0
  4 26  1  0
  5 17  4  0
  5 18  4  0
  6 20  1  0
  6 26  1  0
  7 24  4  0
  8 15  4  0
  8 24  4  0
  9 14  4  0
  9 21  4  0
 10 12  4  0
 10 27  4  0
 11 12  4  0
 11 23  4  0
 13 23  4  0
 13 27  4  0
 14 20  4  0
 15 22  4  0
 16 18  4  0
 16 25  2  0
 16 28  4  0
 21 28  4  0
 24 27  1  0
M  END
$$$$

 Created by Python create_sdf_string function

 28 31  0  0  0  0  0  0  0  0999 V2000
   -1.0054  -13.0622   19.1198 C   0  0  0  0  0  0  0  0  0  0  0  0
    3.1478   -8.5360   28.5161 C   0  0  0  0  0  0  0  0  0  0  0  0
    0.5798   -7.1906   27.9330 C   0  0  0  0  0  0  0  0  0  0  0  0
    0.3978   -5.1561   26.6955 C   0  0  0  0  0  0  0  0  0  0  0  0
    2.3063  -10.0533   30.0125 C   0  0  0  0  0  0  0  0  0  0  0  0
    1.8591   -6.8254   27.4685 N   0  0  0  0  0  0  0  0  0  0  0  0
   -0.2167  -12.1055   18.5568 C   0  0  0  0  0  0  0  0  0  0  0  0
   -2.0661  -10.6994   18.1916 C   0  0  0  0  0  0  0  0  0  0  0  0
    5.2703   -7.5691   27.1123 C   0  0  0  0  0  0  0  0  0  0  0  0
    1.6204   -9.9887   17.2935 C   0  0  0  0  0  0  0  0  0  0  0  0
    1.8931   -7.9265   16.2047 C   0  0  0  0  0  0  0  0  0  0  0  0
    2.4396   -9.0801   16.7132 C   0  0  0  0  0  0  0  0  0  0  0  0
   -0.2575   -8.6234   16.8582 C   0  0  0  0  0  0  0  0  0  0  0  0
    4.0614   -7.0367   27.0106 N   0  0  0  0  0  0  0  0  0  0  0  0
   -2.9133  -11.6279   18.7578 C   0  0  0  0  0  0  0  0  0  0  0  0
    4.5688  -10.1291   29.5758 C   0  0  0  0  0  0  0  0  0  0  0  0
    2.1008   -9.0410   29.1852 N   0  0  0  0  0  0  0  0  0  0  0  0
    3.4829  -10.5697   30.2091 N   0  0  0  0  0  0  0  0  0  0  0  0
   -0.3363   -6.1172   27.5628 C   0  0  0  0  0  0  0  0  0  0  0  0
    3.0331   -7.4400   27.6362 C   0  0  0  0  0  0  0  0  0  0  0  0
    5.4553   -8.5933   27.9644 C   0  0  0  0  0  0  0  0  0  0  0  0
   -2.3870  -12.8440   19.2512 C   0  0  0  0  0  0  0  0  0  0  0  0
    0.5331   -7.6964   16.2751 C   0  0  0  0  0  0  0  0  0  0  0  0
   -0.6740  -10.8737   18.0482 C   0  0  0  0  0  0  0  0  0  0  0  0
    5.6751  -10.5870   29.7637 O   0  0  0  0  0  0  0  0  0  0  0  0
    1.7612   -5.6483   26.7172 C   0  0  0  0  0  0  0  0  0  0  0  0
    0.2221   -9.8326   17.4055 C   0  0  0  0  0  0  0  0  0  0  0  0
    4.3850   -9.0730   28.6745 C   0  0  0  0  0  0  0  0  0  0  0  0
  1  7  4  0
  1 22  4  0
  2 17  4  0
  2 20  4  0
  2 28  4  0
  3  6  1  0
  3 19  1  0
  4 19  1  0
  4 26  1  0
  5 17  4  0
  5 18  4  0
  6 20  1  0
  6 26  1  0
  7 24  4  0
  8 15  4  0
  8 24  4  0
  9 14  4  0
  9 21  4  0
 10 12  4  0
 10 27  4  0
 11 12  4  0
 11 23  4  0
 13 23  4  0
 13 27  4  0
 14 20  4  0
 15 22  4  0
 16 18  4  0
 16 25  2  0
 16 28  4  0
 21 28  4  0
 24 27  1  0
M  END
$$$$

 Created by Python create_sdf_string function

 28 31  0  0  0  0  0  0  0  0999 V2000
   -1.0054  -13.0622   19.1198 C   0  0  0  0  0  0  0  0  0  0  0  0
    3.1478   -8.5360   28.5161 C   0  0  0  0  0  0  0  0  0  0  0  0
    0.5798   -7.1906   27.9330 C   0  0  0  0  0  0  0  0  0  0  0  0
    0.3978   -5.1561   26.6955 C   0  0  0  0  0  0  0  0  0  0  0  0
    2.3063  -10.0533   30.0125 C   0  0  0  0  0  0  0  0  0  0  0  0
    1.8591   -6.8254   27.4685 N   0  0  0  0  0  0  0  0  0  0  0  0
   -0.2167  -12.1055   18.5568 C   0  0  0  0  0  0  0  0  0  0  0  0
   -2.0661  -10.6994   18.1916 C   0  0  0  0  0  0  0  0  0  0  0  0
    5.2703   -7.5691   27.1123 C   0  0  0  0  0  0  0  0  0  0  0  0
    1.6204   -9.9887   17.2935 C   0  0  0  0  0  0  0  0  0  0  0  0
    1.8931   -7.9265   16.2047 C   0  0  0  0  0  0  0  0  0  0  0  0
    2.4396   -9.0801   16.7132 C   0  0  0  0  0  0  0  0  0  0  0  0
   -0.2575   -8.6234   16.8582 C   0  0  0  0  0  0  0  0  0  0  0  0
    4.0614   -7.0367   27.0106 N   0  0  0  0  0  0  0  0  0  0  0  0
   -2.9133  -11.6279   18.7578 C   0  0  0  0  0  0  0  0  0  0  0  0
    4.5688  -10.1291   29.5758 C   0  0  0  0  0  0  0  0  0  0  0  0
    2.1008   -9.0410   29.1852 N   0  0  0  0  0  0  0  0  0  0  0  0
    3.4829  -10.5697   30.2091 N   0  0  0  0  0  0  0  0  0  0  0  0
   -0.3363   -6.1172   27.5628 C   0  0  0  0  0  0  0  0  0  0  0  0
    3.0331   -7.4400   27.6362 C   0  0  0  0  0  0  0  0  0  0  0  0
    5.4553   -8.5933   27.9644 C   0  0  0  0  0  0  0  0  0  0  0  0
   -2.3870  -12.8440   19.2512 C   0  0  0  0  0  0  0  0  0  0  0  0
    0.5331   -7.6964   16.2751 C   0  0  0  0  0  0  0  0  0  0  0  0
   -0.6740  -10.8737   18.0482 C   0  0  0  0  0  0  0  0  0  0  0  0
    5.6751  -10.5870   29.7637 O   0  0  0  0  0  0  0  0  0  0  0  0
    1.7612   -5.6483   26.7172 C   0  0  0  0  0  0  0  0  0  0  0  0
    0.2221   -9.8326   17.4055 C   0  0  0  0  0  0  0  0  0  0  0  0
    4.3850   -9.0730   28.6745 C   0  0  0  0  0  0  0  0  0  0  0  0
  1  7  4  0
  1 22  4  0
  2 17  4  0
  2 20  4  0
  2 28  4  0
  3  6  1  0
  3 19  1  0
  4 19  1  0
  4 26  1  0
  5 17  4  0
  5 18  4  0
  6 20  1  0
  6 26  1  0
  7 24  4  0
  8 15  4  0
  8 24  4  0
  9 14  4  0
  9 21  4  0
 10 12  4  0
 10 27  4  0
 11 12  4  0
 11 23  4  0
 13 23  4  0
 13 27  4  0
 14 20  4  0
 15 22  4  0
 16 18  4  0
 16 25  2  0
 16 28  4  0
 21 28  4  0
 24 27  1  0
M  END
$$$$

 Created by Python create_sdf_string function

 28 31  0  0  0  0  0  0  0  0999 V2000
   -1.0054  -13.0622   19.1198 C   0  0  0  0  0  0  0  0  0  0  0  0
    3.1478   -8.5360   28.5161 C   0  0  0  0  0  0  0  0  0  0  0  0
    0.5798   -7.1906   27.9330 C   0  0  0  0  0  0  0  0  0  0  0  0
    0.3978   -5.1561   26.6955 C   0  0  0  0  0  0  0  0  0  0  0  0
    2.3063  -10.0533   30.0125 C   0  0  0  0  0  0  0  0  0  0  0  0
    1.8591   -6.8254   27.4685 N   0  0  0  0  0  0  0  0  0  0  0  0
   -0.2167  -12.1055   18.5568 C   0  0  0  0  0  0  0  0  0  0  0  0
   -2.0661  -10.6994   18.1916 C   0  0  0  0  0  0  0  0  0  0  0  0
    5.2703   -7.5691   27.1123 C   0  0  0  0  0  0  0  0  0  0  0  0
    1.6204   -9.9887   17.2935 C   0  0  0  0  0  0  0  0  0  0  0  0
    1.8931   -7.9265   16.2047 C   0  0  0  0  0  0  0  0  0  0  0  0
    2.4396   -9.0801   16.7132 C   0  0  0  0  0  0  0  0  0  0  0  0
   -0.2575   -8.6234   16.8582 C   0  0  0  0  0  0  0  0  0  0  0  0
    4.0614   -7.0367   27.0106 N   0  0  0  0  0  0  0  0  0  0  0  0
   -2.9133  -11.6279   18.7578 C   0  0  0  0  0  0  0  0  0  0  0  0
    4.5688  -10.1291   29.5758 C   0  0  0  0  0  0  0  0  0  0  0  0
    2.1008   -9.0410   29.1852 N   0  0  0  0  0  0  0  0  0  0  0  0
    3.4829  -10.5697   30.2091 N   0  0  0  0  0  0  0  0  0  0  0  0
   -0.3363   -6.1172   27.5628 C   0  0  0  0  0  0  0  0  0  0  0  0
    3.0331   -7.4400   27.6362 C   0  0  0  0  0  0  0  0  0  0  0  0
    5.4553   -8.5933   27.9644 C   0  0  0  0  0  0  0  0  0  0  0  0
   -2.3870  -12.8440   19.2512 C   0  0  0  0  0  0  0  0  0  0  0  0
    0.5331   -7.6964   16.2751 C   0  0  0  0  0  0  0  0  0  0  0  0
   -0.6740  -10.8737   18.0482 C   0  0  0  0  0  0  0  0  0  0  0  0
    5.6751  -10.5870   29.7637 O   0  0  0  0  0  0  0  0  0  0  0  0
    1.7612   -5.6483   26.7172 C   0  0  0  0  0  0  0  0  0  0  0  0
    0.2221   -9.8326   17.4055 C   0  0  0  0  0  0  0  0  0  0  0  0
    4.3850   -9.0730   28.6745 C   0  0  0  0  0  0  0  0  0  0  0  0
  1  7  4  0
  1 22  4  0
  2 17  4  0
  2 20  4  0
  2 28  4  0
  3  6  1  0
  3 19  1  0
  4 19  1  0
  4 26  1  0
  5 17  4  0
  5 18  4  0
  6 20  1  0
  6 26  1  0
  7 24  4  0
  8 15  4  0
  8 24  4  0
  9 14  4  0
  9 21  4  0
 10 12  4  0
 10 27  4  0
 11 12  4  0
 11 23  4  0
 13 23  4  0
 13 27  4  0
 14 20  4  0
 15 22  4  0
 16 18  4  0
 16 25  2  0
 16 28  4  0
 21 28  4  0
 24 27  1  0
M  END
$$$$

 Created by Python create_sdf_string function

 28 31  0  0  0  0  0  0  0  0999 V2000
   -1.0054  -13.0622   19.1198 C   0  0  0  0  0  0  0  0  0  0  0  0
    3.1478   -8.5360   28.5161 C   0  0  0  0  0  0  0  0  0  0  0  0
    0.5798   -7.1906   27.9330 C   0  0  0  0  0  0  0  0  0  0  0  0
    0.3978   -5.1561   26.6955 C   0  0  0  0  0  0  0  0  0  0  0  0
    2.3063  -10.0533   30.0125 C   0  0  0  0  0  0  0  0  0  0  0  0
    1.8591   -6.8254   27.4685 N   0  0  0  0  0  0  0  0  0  0  0  0
   -0.2167  -12.1055   18.5568 C   0  0  0  0  0  0  0  0  0  0  0  0
   -2.0661  -10.6994   18.1916 C   0  0  0  0  0  0  0  0  0  0  0  0
    5.2703   -7.5691   27.1123 C   0  0  0  0  0  0  0  0  0  0  0  0
    1.6204   -9.9887   17.2935 C   0  0  0  0  0  0  0  0  0  0  0  0
    1.8931   -7.9265   16.2047 C   0  0  0  0  0  0  0  0  0  0  0  0
    2.4396   -9.0801   16.7132 C   0  0  0  0  0  0  0  0  0  0  0  0
   -0.2575   -8.6234   16.8582 C   0  0  0  0  0  0  0  0  0  0  0  0
    4.0614   -7.0367   27.0106 N   0  0  0  0  0  0  0  0  0  0  0  0
   -2.9133  -11.6279   18.7578 C   0  0  0  0  0  0  0  0  0  0  0  0
    4.5688  -10.1291   29.5758 C   0  0  0  0  0  0  0  0  0  0  0  0
    2.1008   -9.0410   29.1852 N   0  0  0  0  0  0  0  0  0  0  0  0
    3.4829  -10.5697   30.2091 N   0  0  0  0  0  0  0  0  0  0  0  0
   -0.3363   -6.1172   27.5628 C   0  0  0  0  0  0  0  0  0  0  0  0
    3.0331   -7.4400   27.6362 C   0  0  0  0  0  0  0  0  0  0  0  0
    5.4553   -8.5933   27.9644 C   0  0  0  0  0  0  0  0  0  0  0  0
   -2.3870  -12.8440   19.2512 C   0  0  0  0  0  0  0  0  0  0  0  0
    0.5331   -7.6964   16.2751 C   0  0  0  0  0  0  0  0  0  0  0  0
   -0.6740  -10.8737   18.0482 C   0  0  0  0  0  0  0  0  0  0  0  0
    5.6751  -10.5870   29.7637 O   0  0  0  0  0  0  0  0  0  0  0  0
    1.7612   -5.6483   26.7172 C   0  0  0  0  0  0  0  0  0  0  0  0
    0.2221   -9.8326   17.4055 C   0  0  0  0  0  0  0  0  0  0  0  0
    4.3850   -9.0730   28.6745 C   0  0  0  0  0  0  0  0  0  0  0  0
  1  7  4  0
  1 22  4  0
  2 17  4  0
  2 20  4  0
  2 28  4  0
  3  6  1  0
  3 19  1  0
  4 19  1  0
  4 26  1  0
  5 17  4  0
  5 18  4  0
  6 20  1  0
  6 26  1  0
  7 24  4  0
  8 15  4  0
  8 24  4  0
  9 14  4  0
  9 21  4  0
 10 12  4  0
 10 27  4  0
 11 12  4  0
 11 23  4  0
 13 23  4  0
 13 27  4  0
 14 20  4  0
 15 22  4  0
 16 18  4  0
 16 25  2  0
 16 28  4  0
 21 28  4  0
 24 27  1  0
M  END
$$$$

 Created by Python create_sdf_string function

 28 31  0  0  0  0  0  0  0  0999 V2000
   -1.0054  -13.0622   19.1198 C   0  0  0  0  0  0  0  0  0  0  0  0
    3.1478   -8.5360   28.5161 C   0  0  0  0  0  0  0  0  0  0  0  0
    0.5798   -7.1906   27.9330 C   0  0  0  0  0  0  0  0  0  0  0  0
    0.3978   -5.1561   26.6955 C   0  0  0  0  0  0  0  0  0  0  0  0
    2.3063  -10.0533   30.0125 C   0  0  0  0  0  0  0  0  0  0  0  0
    1.8591   -6.8254   27.4685 N   0  0  0  0  0  0  0  0  0  0  0  0
   -0.2167  -12.1055   18.5568 C   0  0  0  0  0  0  0  0  0  0  0  0
   -2.0661  -10.6994   18.1916 C   0  0  0  0  0  0  0  0  0  0  0  0
    5.2703   -7.5691   27.1123 C   0  0  0  0  0  0  0  0  0  0  0  0
    1.6204   -9.9887   17.2935 C   0  0  0  0  0  0  0  0  0  0  0  0
    1.8931   -7.9265   16.2047 C   0  0  0  0  0  0  0  0  0  0  0  0
    2.4396   -9.0801   16.7132 C   0  0  0  0  0  0  0  0  0  0  0  0
   -0.2575   -8.6234   16.8582 C   0  0  0  0  0  0  0  0  0  0  0  0
    4.0614   -7.0367   27.0106 N   0  0  0  0  0  0  0  0  0  0  0  0
   -2.9133  -11.6279   18.7578 C   0  0  0  0  0  0  0  0  0  0  0  0
    4.5688  -10.1291   29.5758 C   0  0  0  0  0  0  0  0  0  0  0  0
    2.1008   -9.0410   29.1852 N   0  0  0  0  0  0  0  0  0  0  0  0
    3.4829  -10.5697   30.2091 N   0  0  0  0  0  0  0  0  0  0  0  0
   -0.3363   -6.1172   27.5628 C   0  0  0  0  0  0  0  0  0  0  0  0
    3.0331   -7.4400   27.6362 C   0  0  0  0  0  0  0  0  0  0  0  0
    5.4553   -8.5933   27.9644 C   0  0  0  0  0  0  0  0  0  0  0  0
   -2.3870  -12.8440   19.2512 C   0  0  0  0  0  0  0  0  0  0  0  0
    0.5331   -7.6964   16.2751 C   0  0  0  0  0  0  0  0  0  0  0  0
   -0.6740  -10.8737   18.0482 C   0  0  0  0  0  0  0  0  0  0  0  0
    5.6751  -10.5870   29.7637 O   0  0  0  0  0  0  0  0  0  0  0  0
    1.7612   -5.6483   26.7172 C   0  0  0  0  0  0  0  0  0  0  0  0
    0.2221   -9.8326   17.4055 C   0  0  0  0  0  0  0  0  0  0  0  0
    4.3850   -9.0730   28.6745 C   0  0  0  0  0  0  0  0  0  0  0  0
  1  7  4  0
  1 22  4  0
  2 17  4  0
  2 20  4  0
  2 28  4  0
  3  6  1  0
  3 19  1  0
  4 19  1  0
  4 26  1  0
  5 17  4  0
  5 18  4  0
  6 20  1  0
  6 26  1  0
  7 24  4  0
  8 15  4  0
  8 24  4  0
  9 14  4  0
  9 21  4  0
 10 12  4  0
 10 27  4  0
 11 12  4  0
 11 23  4  0
 13 23  4  0
 13 27  4  0
 14 20  4  0
 15 22  4  0
 16 18  4  0
 16 25  2  0
 16 28  4  0
 21 28  4  0
 24 27  1  0
M  END
$$$$

 Created by Python create_sdf_string function

 28 31  0  0  0  0  0  0  0  0999 V2000
   -1.0054  -13.0622   19.1198 C   0  0  0  0  0  0  0  0  0  0  0  0
    3.1478   -8.5360   28.5161 C   0  0  0  0  0  0  0  0  0  0  0  0
    0.5798   -7.1906   27.9330 C   0  0  0  0  0  0  0  0  0  0  0  0
    0.3978   -5.1561   26.6955 C   0  0  0  0  0  0  0  0  0  0  0  0
    2.3063  -10.0533   30.0125 C   0  0  0  0  0  0  0  0  0  0  0  0
    1.8591   -6.8254   27.4685 N   0  0  0  0  0  0  0  0  0  0  0  0
   -0.2167  -12.1055   18.5568 C   0  0  0  0  0  0  0  0  0  0  0  0
   -2.0661  -10.6994   18.1916 C   0  0  0  0  0  0  0  0  0  0  0  0
    5.2703   -7.5691   27.1123 C   0  0  0  0  0  0  0  0  0  0  0  0
    1.6204   -9.9887   17.2935 C   0  0  0  0  0  0  0  0  0  0  0  0
    1.8931   -7.9265   16.2047 C   0  0  0  0  0  0  0  0  0  0  0  0
    2.4396   -9.0801   16.7132 C   0  0  0  0  0  0  0  0  0  0  0  0
   -0.2575   -8.6234   16.8582 C   0  0  0  0  0  0  0  0  0  0  0  0
    4.0614   -7.0367   27.0106 N   0  0  0  0  0  0  0  0  0  0  0  0
   -2.9133  -11.6279   18.7578 C   0  0  0  0  0  0  0  0  0  0  0  0
    4.5688  -10.1291   29.5758 C   0  0  0  0  0  0  0  0  0  0  0  0
    2.1008   -9.0410   29.1852 N   0  0  0  0  0  0  0  0  0  0  0  0
    3.4829  -10.5697   30.2091 N   0  0  0  0  0  0  0  0  0  0  0  0
   -0.3363   -6.1172   27.5628 C   0  0  0  0  0  0  0  0  0  0  0  0
    3.0331   -7.4400   27.6362 C   0  0  0  0  0  0  0  0  0  0  0  0
    5.4553   -8.5933   27.9644 C   0  0  0  0  0  0  0  0  0  0  0  0
   -2.3870  -12.8440   19.2512 C   0  0  0  0  0  0  0  0  0  0  0  0
    0.5331   -7.6964   16.2751 C   0  0  0  0  0  0  0  0  0  0  0  0
   -0.6740  -10.8737   18.0482 C   0  0  0  0  0  0  0  0  0  0  0  0
    5.6751  -10.5870   29.7637 O   0  0  0  0  0  0  0  0  0  0  0  0
    1.7612   -5.6483   26.7172 C   0  0  0  0  0  0  0  0  0  0  0  0
    0.2221   -9.8326   17.4055 C   0  0  0  0  0  0  0  0  0  0  0  0
    4.3850   -9.0730   28.6745 C   0  0  0  0  0  0  0  0  0  0  0  0
  1  7  4  0
  1 22  4  0
  2 17  4  0
  2 20  4  0
  2 28  4  0
  3  6  1  0
  3 19  1  0
  4 19  1  0
  4 26  1  0
  5 17  4  0
  5 18  4  0
  6 20  1  0
  6 26  1  0
  7 24  4  0
  8 15  4  0
  8 24  4  0
  9 14  4  0
  9 21  4  0
 10 12  4  0
 10 27  4  0
 11 12  4  0
 11 23  4  0
 13 23  4  0
 13 27  4  0
 14 20  4  0
 15 22  4  0
 16 18  4  0
 16 25  2  0
 16 28  4  0
 21 28  4  0
 24 27  1  0
M  END
$$$$

 Created by Python create_sdf_string function

 28 31  0  0  0  0  0  0  0  0999 V2000
   -1.0054  -13.0622   19.1198 C   0  0  0  0  0  0  0  0  0  0  0  0
    3.1478   -8.5360   28.5161 C   0  0  0  0  0  0  0  0  0  0  0  0
    0.5798   -7.1906   27.9330 C   0  0  0  0  0  0  0  0  0  0  0  0
    0.3978   -5.1561   26.6955 C   0  0  0  0  0  0  0  0  0  0  0  0
    2.3063  -10.0533   30.0125 C   0  0  0  0  0  0  0  0  0  0  0  0
    1.8591   -6.8254   27.4685 N   0  0  0  0  0  0  0  0  0  0  0  0
   -0.2167  -12.1055   18.5568 C   0  0  0  0  0  0  0  0  0  0  0  0
   -2.0661  -10.6994   18.1916 C   0  0  0  0  0  0  0  0  0  0  0  0
    5.2703   -7.5691   27.1123 C   0  0  0  0  0  0  0  0  0  0  0  0
    1.6204   -9.9887   17.2935 C   0  0  0  0  0  0  0  0  0  0  0  0
    1.8931   -7.9265   16.2047 C   0  0  0  0  0  0  0  0  0  0  0  0
    2.4396   -9.0801   16.7132 C   0  0  0  0  0  0  0  0  0  0  0  0
   -0.2575   -8.6234   16.8582 C   0  0  0  0  0  0  0  0  0  0  0  0
    4.0614   -7.0367   27.0106 N   0  0  0  0  0  0  0  0  0  0  0  0
   -2.9133  -11.6279   18.7578 C   0  0  0  0  0  0  0  0  0  0  0  0
    4.5688  -10.1291   29.5758 C   0  0  0  0  0  0  0  0  0  0  0  0
    2.1008   -9.0410   29.1852 N   0  0  0  0  0  0  0  0  0  0  0  0
    3.4829  -10.5697   30.2091 N   0  0  0  0  0  0  0  0  0  0  0  0
   -0.3363   -6.1172   27.5628 C   0  0  0  0  0  0  0  0  0  0  0  0
    3.0331   -7.4400   27.6362 C   0  0  0  0  0  0  0  0  0  0  0  0
    5.4553   -8.5933   27.9644 C   0  0  0  0  0  0  0  0  0  0  0  0
   -2.3870  -12.8440   19.2512 C   0  0  0  0  0  0  0  0  0  0  0  0
    0.5331   -7.6964   16.2751 C   0  0  0  0  0  0  0  0  0  0  0  0
   -0.6740  -10.8737   18.0482 C   0  0  0  0  0  0  0  0  0  0  0  0
    5.6751  -10.5870   29.7637 O   0  0  0  0  0  0  0  0  0  0  0  0
    1.7612   -5.6483   26.7172 C   0  0  0  0  0  0  0  0  0  0  0  0
    0.2221   -9.8326   17.4055 C   0  0  0  0  0  0  0  0  0  0  0  0
    4.3850   -9.0730   28.6745 C   0  0  0  0  0  0  0  0  0  0  0  0
  1  7  4  0
  1 22  4  0
  2 17  4  0
  2 20  4  0
  2 28  4  0
  3  6  1  0
  3 19  1  0
  4 19  1  0
  4 26  1  0
  5 17  4  0
  5 18  4  0
  6 20  1  0
  6 26  1  0
  7 24  4  0
  8 15  4  0
  8 24  4  0
  9 14  4  0
  9 21  4  0
 10 12  4  0
 10 27  4  0
 11 12  4  0
 11 23  4  0
 13 23  4  0
 13 27  4  0
 14 20  4  0
 15 22  4  0
 16 18  4  0
 16 25  2  0
 16 28  4  0
 21 28  4  0
 24 27  1  0
M  END
$$$$

 Created by Python create_sdf_string function

 28 31  0  0  0  0  0  0  0  0999 V2000
   -1.0054  -13.0622   19.1198 C   0  0  0  0  0  0  0  0  0  0  0  0
    3.1478   -8.5360   28.5161 C   0  0  0  0  0  0  0  0  0  0  0  0
    0.5798   -7.1906   27.9330 C   0  0  0  0  0  0  0  0  0  0  0  0
    0.3978   -5.1561   26.6955 C   0  0  0  0  0  0  0  0  0  0  0  0
    2.3063  -10.0533   30.0125 C   0  0  0  0  0  0  0  0  0  0  0  0
    1.8591   -6.8254   27.4685 N   0  0  0  0  0  0  0  0  0  0  0  0
   -0.2167  -12.1055   18.5568 C   0  0  0  0  0  0  0  0  0  0  0  0
   -2.0661  -10.6994   18.1916 C   0  0  0  0  0  0  0  0  0  0  0  0
    5.2703   -7.5691   27.1123 C   0  0  0  0  0  0  0  0  0  0  0  0
    1.6204   -9.9887   17.2935 C   0  0  0  0  0  0  0  0  0  0  0  0
    1.8931   -7.9265   16.2047 C   0  0  0  0  0  0  0  0  0  0  0  0
    2.4396   -9.0801   16.7132 C   0  0  0  0  0  0  0  0  0  0  0  0
   -0.2575   -8.6234   16.8582 C   0  0  0  0  0  0  0  0  0  0  0  0
    4.0614   -7.0367   27.0106 N   0  0  0  0  0  0  0  0  0  0  0  0
   -2.9133  -11.6279   18.7578 C   0  0  0  0  0  0  0  0  0  0  0  0
    4.5688  -10.1291   29.5758 C   0  0  0  0  0  0  0  0  0  0  0  0
    2.1008   -9.0410   29.1852 N   0  0  0  0  0  0  0  0  0  0  0  0
    3.4829  -10.5697   30.2091 N   0  0  0  0  0  0  0  0  0  0  0  0
   -0.3363   -6.1172   27.5628 C   0  0  0  0  0  0  0  0  0  0  0  0
    3.0331   -7.4400   27.6362 C   0  0  0  0  0  0  0  0  0  0  0  0
    5.4553   -8.5933   27.9644 C   0  0  0  0  0  0  0  0  0  0  0  0
   -2.3870  -12.8440   19.2512 C   0  0  0  0  0  0  0  0  0  0  0  0
    0.5331   -7.6964   16.2751 C   0  0  0  0  0  0  0  0  0  0  0  0
   -0.6740  -10.8737   18.0482 C   0  0  0  0  0  0  0  0  0  0  0  0
    5.6751  -10.5870   29.7637 O   0  0  0  0  0  0  0  0  0  0  0  0
    1.7612   -5.6483   26.7172 C   0  0  0  0  0  0  0  0  0  0  0  0
    0.2221   -9.8326   17.4055 C   0  0  0  0  0  0  0  0  0  0  0  0
    4.3850   -9.0730   28.6745 C   0  0  0  0  0  0  0  0  0  0  0  0
  1  7  4  0
  1 22  4  0
  2 17  4  0
  2 20  4  0
  2 28  4  0
  3  6  1  0
  3 19  1  0
  4 19  1  0
  4 26  1  0
  5 17  4  0
  5 18  4  0
  6 20  1  0
  6 26  1  0
  7 24  4  0
  8 15  4  0
  8 24  4  0
  9 14  4  0
  9 21  4  0
 10 12  4  0
 10 27  4  0
 11 12  4  0
 11 23  4  0
 13 23  4  0
 13 27  4  0
 14 20  4  0
 15 22  4  0
 16 18  4  0
 16 25  2  0
 16 28  4  0
 21 28  4  0
 24 27  1  0
M  END
$$$$

 Created by Python create_sdf_string function

 28 31  0  0  0  0  0  0  0  0999 V2000
   -1.0054  -13.0622   19.1198 C   0  0  0  0  0  0  0  0  0  0  0  0
    3.1478   -8.5360   28.5161 C   0  0  0  0  0  0  0  0  0  0  0  0
    0.5798   -7.1906   27.9330 C   0  0  0  0  0  0  0  0  0  0  0  0
    0.3978   -5.1561   26.6955 C   0  0  0  0  0  0  0  0  0  0  0  0
    2.3063  -10.0533   30.0125 C   0  0  0  0  0  0  0  0  0  0  0  0
    1.8591   -6.8254   27.4685 N   0  0  0  0  0  0  0  0  0  0  0  0
   -0.2167  -12.1055   18.5568 C   0  0  0  0  0  0  0  0  0  0  0  0
   -2.0661  -10.6994   18.1916 C   0  0  0  0  0  0  0  0  0  0  0  0
    5.2703   -7.5691   27.1123 C   0  0  0  0  0  0  0  0  0  0  0  0
    1.6204   -9.9887   17.2935 C   0  0  0  0  0  0  0  0  0  0  0  0
    1.8931   -7.9265   16.2047 C   0  0  0  0  0  0  0  0  0  0  0  0
    2.4396   -9.0801   16.7132 C   0  0  0  0  0  0  0  0  0  0  0  0
   -0.2575   -8.6234   16.8582 C   0  0  0  0  0  0  0  0  0  0  0  0
    4.0614   -7.0367   27.0106 N   0  0  0  0  0  0  0  0  0  0  0  0
   -2.9133  -11.6279   18.7578 C   0  0  0  0  0  0  0  0  0  0  0  0
    4.5688  -10.1291   29.5758 C   0  0  0  0  0  0  0  0  0  0  0  0
    2.1008   -9.0410   29.1852 N   0  0  0  0  0  0  0  0  0  0  0  0
    3.4829  -10.5697   30.2091 N   0  0  0  0  0  0  0  0  0  0  0  0
   -0.3363   -6.1172   27.5628 C   0  0  0  0  0  0  0  0  0  0  0  0
    3.0331   -7.4400   27.6362 C   0  0  0  0  0  0  0  0  0  0  0  0
    5.4553   -8.5933   27.9644 C   0  0  0  0  0  0  0  0  0  0  0  0
   -2.3870  -12.8440   19.2512 C   0  0  0  0  0  0  0  0  0  0  0  0
    0.5331   -7.6964   16.2751 C   0  0  0  0  0  0  0  0  0  0  0  0
   -0.6740  -10.8737   18.0482 C   0  0  0  0  0  0  0  0  0  0  0  0
    5.6751  -10.5870   29.7637 O   0  0  0  0  0  0  0  0  0  0  0  0
    1.7612   -5.6483   26.7172 C   0  0  0  0  0  0  0  0  0  0  0  0
    0.2221   -9.8326   17.4055 C   0  0  0  0  0  0  0  0  0  0  0  0
    4.3850   -9.0730   28.6745 C   0  0  0  0  0  0  0  0  0  0  0  0
  1  7  4  0
  1 22  4  0
  2 17  4  0
  2 20  4  0
  2 28  4  0
  3  6  1  0
  3 19  1  0
  4 19  1  0
  4 26  1  0
  5 17  4  0
  5 18  4  0
  6 20  1  0
  6 26  1  0
  7 24  4  0
  8 15  4  0
  8 24  4  0
  9 14  4  0
  9 21  4  0
 10 12  4  0
 10 27  4  0
 11 12  4  0
 11 23  4  0
 13 23  4  0
 13 27  4  0
 14 20  4  0
 15 22  4  0
 16 18  4  0
 16 25  2  0
 16 28  4  0
 21 28  4  0
 24 27  1  0
M  END
$$$$

 Created by Python create_sdf_string function

 28 31  0  0  0  0  0  0  0  0999 V2000
   -1.0054  -13.0622   19.1198 C   0  0  0  0  0  0  0  0  0  0  0  0
    3.1478   -8.5360   28.5161 C   0  0  0  0  0  0  0  0  0  0  0  0
    0.5798   -7.1906   27.9330 C   0  0  0  0  0  0  0  0  0  0  0  0
    0.3978   -5.1561   26.6955 C   0  0  0  0  0  0  0  0  0  0  0  0
    2.3063  -10.0533   30.0125 C   0  0  0  0  0  0  0  0  0  0  0  0
    1.8591   -6.8254   27.4685 N   0  0  0  0  0  0  0  0  0  0  0  0
   -0.2167  -12.1055   18.5568 C   0  0  0  0  0  0  0  0  0  0  0  0
   -2.0661  -10.6994   18.1916 C   0  0  0  0  0  0  0  0  0  0  0  0
    5.2703   -7.5691   27.1123 C   0  0  0  0  0  0  0  0  0  0  0  0
    1.6204   -9.9887   17.2935 C   0  0  0  0  0  0  0  0  0  0  0  0
    1.8931   -7.9265   16.2047 C   0  0  0  0  0  0  0  0  0  0  0  0
    2.4396   -9.0801   16.7132 C   0  0  0  0  0  0  0  0  0  0  0  0
   -0.2575   -8.6234   16.8582 C   0  0  0  0  0  0  0  0  0  0  0  0
    4.0614   -7.0367   27.0106 N   0  0  0  0  0  0  0  0  0  0  0  0
   -2.9133  -11.6279   18.7578 C   0  0  0  0  0  0  0  0  0  0  0  0
    4.5688  -10.1291   29.5758 C   0  0  0  0  0  0  0  0  0  0  0  0
    2.1008   -9.0410   29.1852 N   0  0  0  0  0  0  0  0  0  0  0  0
    3.4829  -10.5697   30.2091 N   0  0  0  0  0  0  0  0  0  0  0  0
   -0.3363   -6.1172   27.5628 C   0  0  0  0  0  0  0  0  0  0  0  0
    3.0331   -7.4400   27.6362 C   0  0  0  0  0  0  0  0  0  0  0  0
    5.4553   -8.5933   27.9644 C   0  0  0  0  0  0  0  0  0  0  0  0
   -2.3870  -12.8440   19.2512 C   0  0  0  0  0  0  0  0  0  0  0  0
    0.5331   -7.6964   16.2751 C   0  0  0  0  0  0  0  0  0  0  0  0
   -0.6740  -10.8737   18.0482 C   0  0  0  0  0  0  0  0  0  0  0  0
    5.6751  -10.5870   29.7637 O   0  0  0  0  0  0  0  0  0  0  0  0
    1.7612   -5.6483   26.7172 C   0  0  0  0  0  0  0  0  0  0  0  0
    0.2221   -9.8326   17.4055 C   0  0  0  0  0  0  0  0  0  0  0  0
    4.3850   -9.0730   28.6745 C   0  0  0  0  0  0  0  0  0  0  0  0
  1  7  4  0
  1 22  4  0
  2 17  4  0
  2 20  4  0
  2 28  4  0
  3  6  1  0
  3 19  1  0
  4 19  1  0
  4 26  1  0
  5 17  4  0
  5 18  4  0
  6 20  1  0
  6 26  1  0
  7 24  4  0
  8 15  4  0
  8 24  4  0
  9 14  4  0
  9 21  4  0
 10 12  4  0
 10 27  4  0
 11 12  4  0
 11 23  4  0
 13 23  4  0
 13 27  4  0
 14 20  4  0
 15 22  4  0
 16 18  4  0
 16 25  2  0
 16 28  4  0
 21 28  4  0
 24 27  1  0
M  END
$$$$

 Created by Python create_sdf_string function

 28 31  0  0  0  0  0  0  0  0999 V2000
   -1.0054  -13.0622   19.1198 C   0  0  0  0  0  0  0  0  0  0  0  0
    3.1478   -8.5360   28.5161 C   0  0  0  0  0  0  0  0  0  0  0  0
    0.5798   -7.1906   27.9330 C   0  0  0  0  0  0  0  0  0  0  0  0
    0.3978   -5.1561   26.6955 C   0  0  0  0  0  0  0  0  0  0  0  0
    2.3063  -10.0533   30.0125 C   0  0  0  0  0  0  0  0  0  0  0  0
    1.8591   -6.8254   27.4685 N   0  0  0  0  0  0  0  0  0  0  0  0
   -0.2167  -12.1055   18.5568 C   0  0  0  0  0  0  0  0  0  0  0  0
   -2.0661  -10.6994   18.1916 C   0  0  0  0  0  0  0  0  0  0  0  0
    5.2703   -7.5691   27.1123 C   0  0  0  0  0  0  0  0  0  0  0  0
    1.6204   -9.9887   17.2935 C   0  0  0  0  0  0  0  0  0  0  0  0
    1.8931   -7.9265   16.2047 C   0  0  0  0  0  0  0  0  0  0  0  0
    2.4396   -9.0801   16.7132 C   0  0  0  0  0  0  0  0  0  0  0  0
   -0.2575   -8.6234   16.8582 C   0  0  0  0  0  0  0  0  0  0  0  0
    4.0614   -7.0367   27.0106 N   0  0  0  0  0  0  0  0  0  0  0  0
   -2.9133  -11.6279   18.7578 C   0  0  0  0  0  0  0  0  0  0  0  0
    4.5688  -10.1291   29.5758 C   0  0  0  0  0  0  0  0  0  0  0  0
    2.1008   -9.0410   29.1852 N   0  0  0  0  0  0  0  0  0  0  0  0
    3.4829  -10.5697   30.2091 N   0  0  0  0  0  0  0  0  0  0  0  0
   -0.3363   -6.1172   27.5628 C   0  0  0  0  0  0  0  0  0  0  0  0
    3.0331   -7.4400   27.6362 C   0  0  0  0  0  0  0  0  0  0  0  0
    5.4553   -8.5933   27.9644 C   0  0  0  0  0  0  0  0  0  0  0  0
   -2.3870  -12.8440   19.2512 C   0  0  0  0  0  0  0  0  0  0  0  0
    0.5331   -7.6964   16.2751 C   0  0  0  0  0  0  0  0  0  0  0  0
   -0.6740  -10.8737   18.0482 C   0  0  0  0  0  0  0  0  0  0  0  0
    5.6751  -10.5870   29.7637 O   0  0  0  0  0  0  0  0  0  0  0  0
    1.7612   -5.6483   26.7172 C   0  0  0  0  0  0  0  0  0  0  0  0
    0.2221   -9.8326   17.4055 C   0  0  0  0  0  0  0  0  0  0  0  0
    4.3850   -9.0730   28.6745 C   0  0  0  0  0  0  0  0  0  0  0  0
  1  7  4  0
  1 22  4  0
  2 17  4  0
  2 20  4  0
  2 28  4  0
  3  6  1  0
  3 19  1  0
  4 19  1  0
  4 26  1  0
  5 17  4  0
  5 18  4  0
  6 20  1  0
  6 26  1  0
  7 24  4  0
  8 15  4  0
  8 24  4  0
  9 14  4  0
  9 21  4  0
 10 12  4  0
 10 27  4  0
 11 12  4  0
 11 23  4  0
 13 23  4  0
 13 27  4  0
 14 20  4  0
 15 22  4  0
 16 18  4  0
 16 25  2  0
 16 28  4  0
 21 28  4  0
 24 27  1  0
M  END
$$$$

 Created by Python create_sdf_string function

 28 31  0  0  0  0  0  0  0  0999 V2000
   -1.0054  -13.0622   19.1198 C   0  0  0  0  0  0  0  0  0  0  0  0
    3.1478   -8.5360   28.5161 C   0  0  0  0  0  0  0  0  0  0  0  0
    0.5798   -7.1906   27.9330 C   0  0  0  0  0  0  0  0  0  0  0  0
    0.3978   -5.1561   26.6955 C   0  0  0  0  0  0  0  0  0  0  0  0
    2.3063  -10.0533   30.0125 C   0  0  0  0  0  0  0  0  0  0  0  0
    1.8591   -6.8254   27.4685 N   0  0  0  0  0  0  0  0  0  0  0  0
   -0.2167  -12.1055   18.5568 C   0  0  0  0  0  0  0  0  0  0  0  0
   -2.0661  -10.6994   18.1916 C   0  0  0  0  0  0  0  0  0  0  0  0
    5.2703   -7.5691   27.1123 C   0  0  0  0  0  0  0  0  0  0  0  0
    1.6204   -9.9887   17.2935 C   0  0  0  0  0  0  0  0  0  0  0  0
    1.8931   -7.9265   16.2047 C   0  0  0  0  0  0  0  0  0  0  0  0
    2.4396   -9.0801   16.7132 C   0  0  0  0  0  0  0  0  0  0  0  0
   -0.2575   -8.6234   16.8582 C   0  0  0  0  0  0  0  0  0  0  0  0
    4.0614   -7.0367   27.0106 N   0  0  0  0  0  0  0  0  0  0  0  0
   -2.9133  -11.6279   18.7578 C   0  0  0  0  0  0  0  0  0  0  0  0
    4.5688  -10.1291   29.5758 C   0  0  0  0  0  0  0  0  0  0  0  0
    2.1008   -9.0410   29.1852 N   0  0  0  0  0  0  0  0  0  0  0  0
    3.4829  -10.5697   30.2091 N   0  0  0  0  0  0  0  0  0  0  0  0
   -0.3363   -6.1172   27.5628 C   0  0  0  0  0  0  0  0  0  0  0  0
    3.0331   -7.4400   27.6362 C   0  0  0  0  0  0  0  0  0  0  0  0
    5.4553   -8.5933   27.9644 C   0  0  0  0  0  0  0  0  0  0  0  0
   -2.3870  -12.8440   19.2512 C   0  0  0  0  0  0  0  0  0  0  0  0
    0.5331   -7.6964   16.2751 C   0  0  0  0  0  0  0  0  0  0  0  0
   -0.6740  -10.8737   18.0482 C   0  0  0  0  0  0  0  0  0  0  0  0
    5.6751  -10.5870   29.7637 O   0  0  0  0  0  0  0  0  0  0  0  0
    1.7612   -5.6483   26.7172 C   0  0  0  0  0  0  0  0  0  0  0  0
    0.2221   -9.8326   17.4055 C   0  0  0  0  0  0  0  0  0  0  0  0
    4.3850   -9.0730   28.6745 C   0  0  0  0  0  0  0  0  0  0  0  0
  1  7  4  0
  1 22  4  0
  2 17  4  0
  2 20  4  0
  2 28  4  0
  3  6  1  0
  3 19  1  0
  4 19  1  0
  4 26  1  0
  5 17  4  0
  5 18  4  0
  6 20  1  0
  6 26  1  0
  7 24  4  0
  8 15  4  0
  8 24  4  0
  9 14  4  0
  9 21  4  0
 10 12  4  0
 10 27  4  0
 11 12  4  0
 11 23  4  0
 13 23  4  0
 13 27  4  0
 14 20  4  0
 15 22  4  0
 16 18  4  0
 16 25  2  0
 16 28  4  0
 21 28  4  0
 24 27  1  0
M  END
$$$$

 Created by Python create_sdf_string function

 28 31  0  0  0  0  0  0  0  0999 V2000
   -1.0054  -13.0622   19.1198 C   0  0  0  0  0  0  0  0  0  0  0  0
    3.1478   -8.5360   28.5161 C   0  0  0  0  0  0  0  0  0  0  0  0
    0.5798   -7.1906   27.9330 C   0  0  0  0  0  0  0  0  0  0  0  0
    0.3978   -5.1561   26.6955 C   0  0  0  0  0  0  0  0  0  0  0  0
    2.3063  -10.0533   30.0125 C   0  0  0  0  0  0  0  0  0  0  0  0
    1.8591   -6.8254   27.4685 N   0  0  0  0  0  0  0  0  0  0  0  0
   -0.2167  -12.1055   18.5568 C   0  0  0  0  0  0  0  0  0  0  0  0
   -2.0661  -10.6994   18.1916 C   0  0  0  0  0  0  0  0  0  0  0  0
    5.2703   -7.5691   27.1123 C   0  0  0  0  0  0  0  0  0  0  0  0
    1.6204   -9.9887   17.2935 C   0  0  0  0  0  0  0  0  0  0  0  0
    1.8931   -7.9265   16.2047 C   0  0  0  0  0  0  0  0  0  0  0  0
    2.4396   -9.0801   16.7132 C   0  0  0  0  0  0  0  0  0  0  0  0
   -0.2575   -8.6234   16.8582 C   0  0  0  0  0  0  0  0  0  0  0  0
    4.0614   -7.0367   27.0106 N   0  0  0  0  0  0  0  0  0  0  0  0
   -2.9133  -11.6279   18.7578 C   0  0  0  0  0  0  0  0  0  0  0  0
    4.5688  -10.1291   29.5758 C   0  0  0  0  0  0  0  0  0  0  0  0
    2.1008   -9.0410   29.1852 N   0  0  0  0  0  0  0  0  0  0  0  0
    3.4829  -10.5697   30.2091 N   0  0  0  0  0  0  0  0  0  0  0  0
   -0.3363   -6.1172   27.5628 C   0  0  0  0  0  0  0  0  0  0  0  0
    3.0331   -7.4400   27.6362 C   0  0  0  0  0  0  0  0  0  0  0  0
    5.4553   -8.5933   27.9644 C   0  0  0  0  0  0  0  0  0  0  0  0
   -2.3870  -12.8440   19.2512 C   0  0  0  0  0  0  0  0  0  0  0  0
    0.5331   -7.6964   16.2751 C   0  0  0  0  0  0  0  0  0  0  0  0
   -0.6740  -10.8737   18.0482 C   0  0  0  0  0  0  0  0  0  0  0  0
    5.6751  -10.5870   29.7637 O   0  0  0  0  0  0  0  0  0  0  0  0
    1.7612   -5.6483   26.7172 C   0  0  0  0  0  0  0  0  0  0  0  0
    0.2221   -9.8326   17.4055 C   0  0  0  0  0  0  0  0  0  0  0  0
    4.3850   -9.0730   28.6745 C   0  0  0  0  0  0  0  0  0  0  0  0
  1  7  4  0
  1 22  4  0
  2 17  4  0
  2 20  4  0
  2 28  4  0
  3  6  1  0
  3 19  1  0
  4 19  1  0
  4 26  1  0
  5 17  4  0
  5 18  4  0
  6 20  1  0
  6 26  1  0
  7 24  4  0
  8 15  4  0
  8 24  4  0
  9 14  4  0
  9 21  4  0
 10 12  4  0
 10 27  4  0
 11 12  4  0
 11 23  4  0
 13 23  4  0
 13 27  4  0
 14 20  4  0
 15 22  4  0
 16 18  4  0
 16 25  2  0
 16 28  4  0
 21 28  4  0
 24 27  1  0
M  END
$$$$

 Created by Python create_sdf_string function

 28 31  0  0  0  0  0  0  0  0999 V2000
   -1.0054  -13.0622   19.1198 C   0  0  0  0  0  0  0  0  0  0  0  0
    3.1478   -8.5360   28.5161 C   0  0  0  0  0  0  0  0  0  0  0  0
    0.5798   -7.1906   27.9330 C   0  0  0  0  0  0  0  0  0  0  0  0
    0.3978   -5.1561   26.6955 C   0  0  0  0  0  0  0  0  0  0  0  0
    2.3063  -10.0533   30.0125 C   0  0  0  0  0  0  0  0  0  0  0  0
    1.8591   -6.8254   27.4685 N   0  0  0  0  0  0  0  0  0  0  0  0
   -0.2167  -12.1055   18.5568 C   0  0  0  0  0  0  0  0  0  0  0  0
   -2.0661  -10.6994   18.1916 C   0  0  0  0  0  0  0  0  0  0  0  0
    5.2703   -7.5691   27.1123 C   0  0  0  0  0  0  0  0  0  0  0  0
    1.6204   -9.9887   17.2935 C   0  0  0  0  0  0  0  0  0  0  0  0
    1.8931   -7.9265   16.2047 C   0  0  0  0  0  0  0  0  0  0  0  0
    2.4396   -9.0801   16.7132 C   0  0  0  0  0  0  0  0  0  0  0  0
   -0.2575   -8.6234   16.8582 C   0  0  0  0  0  0  0  0  0  0  0  0
    4.0614   -7.0367   27.0106 N   0  0  0  0  0  0  0  0  0  0  0  0
   -2.9133  -11.6279   18.7578 C   0  0  0  0  0  0  0  0  0  0  0  0
    4.5688  -10.1291   29.5758 C   0  0  0  0  0  0  0  0  0  0  0  0
    2.1008   -9.0410   29.1852 N   0  0  0  0  0  0  0  0  0  0  0  0
    3.4829  -10.5697   30.2091 N   0  0  0  0  0  0  0  0  0  0  0  0
   -0.3363   -6.1172   27.5628 C   0  0  0  0  0  0  0  0  0  0  0  0
    3.0331   -7.4400   27.6362 C   0  0  0  0  0  0  0  0  0  0  0  0
    5.4553   -8.5933   27.9644 C   0  0  0  0  0  0  0  0  0  0  0  0
   -2.3870  -12.8440   19.2512 C   0  0  0  0  0  0  0  0  0  0  0  0
    0.5331   -7.6964   16.2751 C   0  0  0  0  0  0  0  0  0  0  0  0
   -0.6740  -10.8737   18.0482 C   0  0  0  0  0  0  0  0  0  0  0  0
    5.6751  -10.5870   29.7637 O   0  0  0  0  0  0  0  0  0  0  0  0
    1.7612   -5.6483   26.7172 C   0  0  0  0  0  0  0  0  0  0  0  0
    0.2221   -9.8326   17.4055 C   0  0  0  0  0  0  0  0  0  0  0  0
    4.3850   -9.0730   28.6745 C   0  0  0  0  0  0  0  0  0  0  0  0
  1  7  4  0
  1 22  4  0
  2 17  4  0
  2 20  4  0
  2 28  4  0
  3  6  1  0
  3 19  1  0
  4 19  1  0
  4 26  1  0
  5 17  4  0
  5 18  4  0
  6 20  1  0
  6 26  1  0
  7 24  4  0
  8 15  4  0
  8 24  4  0
  9 14  4  0
  9 21  4  0
 10 12  4  0
 10 27  4  0
 11 12  4  0
 11 23  4  0
 13 23  4  0
 13 27  4  0
 14 20  4  0
 15 22  4  0
 16 18  4  0
 16 25  2  0
 16 28  4  0
 21 28  4  0
 24 27  1  0
M  END
$$$$

 Created by Python create_sdf_string function

 28 31  0  0  0  0  0  0  0  0999 V2000
   -1.0054  -13.0622   19.1198 C   0  0  0  0  0  0  0  0  0  0  0  0
    3.1478   -8.5360   28.5161 C   0  0  0  0  0  0  0  0  0  0  0  0
    0.5798   -7.1906   27.9330 C   0  0  0  0  0  0  0  0  0  0  0  0
    0.3978   -5.1561   26.6955 C   0  0  0  0  0  0  0  0  0  0  0  0
    2.3063  -10.0533   30.0125 C   0  0  0  0  0  0  0  0  0  0  0  0
    1.8591   -6.8254   27.4685 N   0  0  0  0  0  0  0  0  0  0  0  0
   -0.2167  -12.1055   18.5568 C   0  0  0  0  0  0  0  0  0  0  0  0
   -2.0661  -10.6994   18.1916 C   0  0  0  0  0  0  0  0  0  0  0  0
    5.2703   -7.5691   27.1123 C   0  0  0  0  0  0  0  0  0  0  0  0
    1.6204   -9.9887   17.2935 C   0  0  0  0  0  0  0  0  0  0  0  0
    1.8931   -7.9265   16.2047 C   0  0  0  0  0  0  0  0  0  0  0  0
    2.4396   -9.0801   16.7132 C   0  0  0  0  0  0  0  0  0  0  0  0
   -0.2575   -8.6234   16.8582 C   0  0  0  0  0  0  0  0  0  0  0  0
    4.0614   -7.0367   27.0106 N   0  0  0  0  0  0  0  0  0  0  0  0
   -2.9133  -11.6279   18.7578 C   0  0  0  0  0  0  0  0  0  0  0  0
    4.5688  -10.1291   29.5758 C   0  0  0  0  0  0  0  0  0  0  0  0
    2.1008   -9.0410   29.1852 N   0  0  0  0  0  0  0  0  0  0  0  0
    3.4829  -10.5697   30.2091 N   0  0  0  0  0  0  0  0  0  0  0  0
   -0.3363   -6.1172   27.5628 C   0  0  0  0  0  0  0  0  0  0  0  0
    3.0331   -7.4400   27.6362 C   0  0  0  0  0  0  0  0  0  0  0  0
    5.4553   -8.5933   27.9644 C   0  0  0  0  0  0  0  0  0  0  0  0
   -2.3870  -12.8440   19.2512 C   0  0  0  0  0  0  0  0  0  0  0  0
    0.5331   -7.6964   16.2751 C   0  0  0  0  0  0  0  0  0  0  0  0
   -0.6740  -10.8737   18.0482 C   0  0  0  0  0  0  0  0  0  0  0  0
    5.6751  -10.5870   29.7637 O   0  0  0  0  0  0  0  0  0  0  0  0
    1.7612   -5.6483   26.7172 C   0  0  0  0  0  0  0  0  0  0  0  0
    0.2221   -9.8326   17.4055 C   0  0  0  0  0  0  0  0  0  0  0  0
    4.3850   -9.0730   28.6745 C   0  0  0  0  0  0  0  0  0  0  0  0
  1  7  4  0
  1 22  4  0
  2 17  4  0
  2 20  4  0
  2 28  4  0
  3  6  1  0
  3 19  1  0
  4 19  1  0
  4 26  1  0
  5 17  4  0
  5 18  4  0
  6 20  1  0
  6 26  1  0
  7 24  4  0
  8 15  4  0
  8 24  4  0
  9 14  4  0
  9 21  4  0
 10 12  4  0
 10 27  4  0
 11 12  4  0
 11 23  4  0
 13 23  4  0
 13 27  4  0
 14 20  4  0
 15 22  4  0
 16 18  4  0
 16 25  2  0
 16 28  4  0
 21 28  4  0
 24 27  1  0
M  END
$$$$

 Created by Python create_sdf_string function

 28 31  0  0  0  0  0  0  0  0999 V2000
   -1.0054  -13.0622   19.1198 C   0  0  0  0  0  0  0  0  0  0  0  0
    3.1478   -8.5360   28.5161 C   0  0  0  0  0  0  0  0  0  0  0  0
    0.5798   -7.1906   27.9330 C   0  0  0  0  0  0  0  0  0  0  0  0
    0.3978   -5.1561   26.6955 C   0  0  0  0  0  0  0  0  0  0  0  0
    2.3063  -10.0533   30.0125 C   0  0  0  0  0  0  0  0  0  0  0  0
    1.8591   -6.8254   27.4685 N   0  0  0  0  0  0  0  0  0  0  0  0
   -0.2167  -12.1055   18.5568 C   0  0  0  0  0  0  0  0  0  0  0  0
   -2.0661  -10.6994   18.1916 C   0  0  0  0  0  0  0  0  0  0  0  0
    5.2703   -7.5691   27.1123 C   0  0  0  0  0  0  0  0  0  0  0  0
    1.6204   -9.9887   17.2935 C   0  0  0  0  0  0  0  0  0  0  0  0
    1.8931   -7.9265   16.2047 C   0  0  0  0  0  0  0  0  0  0  0  0
    2.4396   -9.0801   16.7132 C   0  0  0  0  0  0  0  0  0  0  0  0
   -0.2575   -8.6234   16.8582 C   0  0  0  0  0  0  0  0  0  0  0  0
    4.0614   -7.0367   27.0106 N   0  0  0  0  0  0  0  0  0  0  0  0
   -2.9133  -11.6279   18.7578 C   0  0  0  0  0  0  0  0  0  0  0  0
    4.5688  -10.1291   29.5758 C   0  0  0  0  0  0  0  0  0  0  0  0
    2.1008   -9.0410   29.1852 N   0  0  0  0  0  0  0  0  0  0  0  0
    3.4829  -10.5697   30.2091 N   0  0  0  0  0  0  0  0  0  0  0  0
   -0.3363   -6.1172   27.5628 C   0  0  0  0  0  0  0  0  0  0  0  0
    3.0331   -7.4400   27.6362 C   0  0  0  0  0  0  0  0  0  0  0  0
    5.4553   -8.5933   27.9644 C   0  0  0  0  0  0  0  0  0  0  0  0
   -2.3870  -12.8440   19.2512 C   0  0  0  0  0  0  0  0  0  0  0  0
    0.5331   -7.6964   16.2751 C   0  0  0  0  0  0  0  0  0  0  0  0
   -0.6740  -10.8737   18.0482 C   0  0  0  0  0  0  0  0  0  0  0  0
    5.6751  -10.5870   29.7637 O   0  0  0  0  0  0  0  0  0  0  0  0
    1.7612   -5.6483   26.7172 C   0  0  0  0  0  0  0  0  0  0  0  0
    0.2221   -9.8326   17.4055 C   0  0  0  0  0  0  0  0  0  0  0  0
    4.3850   -9.0730   28.6745 C   0  0  0  0  0  0  0  0  0  0  0  0
  1  7  4  0
  1 22  4  0
  2 17  4  0
  2 20  4  0
  2 28  4  0
  3  6  1  0
  3 19  1  0
  4 19  1  0
  4 26  1  0
  5 17  4  0
  5 18  4  0
  6 20  1  0
  6 26  1  0
  7 24  4  0
  8 15  4  0
  8 24  4  0
  9 14  4  0
  9 21  4  0
 10 12  4  0
 10 27  4  0
 11 12  4  0
 11 23  4  0
 13 23  4  0
 13 27  4  0
 14 20  4  0
 15 22  4  0
 16 18  4  0
 16 25  2  0
 16 28  4  0
 21 28  4  0
 24 27  1  0
M  END
$$$$

 Created by Python create_sdf_string function

 28 31  0  0  0  0  0  0  0  0999 V2000
   -1.0054  -13.0622   19.1198 C   0  0  0  0  0  0  0  0  0  0  0  0
    3.1478   -8.5360   28.5161 C   0  0  0  0  0  0  0  0  0  0  0  0
    0.5798   -7.1906   27.9330 C   0  0  0  0  0  0  0  0  0  0  0  0
    0.3978   -5.1561   26.6955 C   0  0  0  0  0  0  0  0  0  0  0  0
    2.3063  -10.0533   30.0125 C   0  0  0  0  0  0  0  0  0  0  0  0
    1.8591   -6.8254   27.4685 N   0  0  0  0  0  0  0  0  0  0  0  0
   -0.2167  -12.1055   18.5568 C   0  0  0  0  0  0  0  0  0  0  0  0
   -2.0661  -10.6994   18.1916 C   0  0  0  0  0  0  0  0  0  0  0  0
    5.2703   -7.5691   27.1123 C   0  0  0  0  0  0  0  0  0  0  0  0
    1.6204   -9.9887   17.2935 C   0  0  0  0  0  0  0  0  0  0  0  0
    1.8931   -7.9265   16.2047 C   0  0  0  0  0  0  0  0  0  0  0  0
    2.4396   -9.0801   16.7132 C   0  0  0  0  0  0  0  0  0  0  0  0
   -0.2575   -8.6234   16.8582 C   0  0  0  0  0  0  0  0  0  0  0  0
    4.0614   -7.0367   27.0106 N   0  0  0  0  0  0  0  0  0  0  0  0
   -2.9133  -11.6279   18.7578 C   0  0  0  0  0  0  0  0  0  0  0  0
    4.5688  -10.1291   29.5758 C   0  0  0  0  0  0  0  0  0  0  0  0
    2.1008   -9.0410   29.1852 N   0  0  0  0  0  0  0  0  0  0  0  0
    3.4829  -10.5697   30.2091 N   0  0  0  0  0  0  0  0  0  0  0  0
   -0.3363   -6.1172   27.5628 C   0  0  0  0  0  0  0  0  0  0  0  0
    3.0331   -7.4400   27.6362 C   0  0  0  0  0  0  0  0  0  0  0  0
    5.4553   -8.5933   27.9644 C   0  0  0  0  0  0  0  0  0  0  0  0
   -2.3870  -12.8440   19.2512 C   0  0  0  0  0  0  0  0  0  0  0  0
    0.5331   -7.6964   16.2751 C   0  0  0  0  0  0  0  0  0  0  0  0
   -0.6740  -10.8737   18.0482 C   0  0  0  0  0  0  0  0  0  0  0  0
    5.6751  -10.5870   29.7637 O   0  0  0  0  0  0  0  0  0  0  0  0
    1.7612   -5.6483   26.7172 C   0  0  0  0  0  0  0  0  0  0  0  0
    0.2221   -9.8326   17.4055 C   0  0  0  0  0  0  0  0  0  0  0  0
    4.3850   -9.0730   28.6745 C   0  0  0  0  0  0  0  0  0  0  0  0
  1  7  4  0
  1 22  4  0
  2 17  4  0
  2 20  4  0
  2 28  4  0
  3  6  1  0
  3 19  1  0
  4 19  1  0
  4 26  1  0
  5 17  4  0
  5 18  4  0
  6 20  1  0
  6 26  1  0
  7 24  4  0
  8 15  4  0
  8 24  4  0
  9 14  4  0
  9 21  4  0
 10 12  4  0
 10 27  4  0
 11 12  4  0
 11 23  4  0
 13 23  4  0
 13 27  4  0
 14 20  4  0
 15 22  4  0
 16 18  4  0
 16 25  2  0
 16 28  4  0
 21 28  4  0
 24 27  1  0
M  END
$$$$

 Created by Python create_sdf_string function

 28 31  0  0  0  0  0  0  0  0999 V2000
   -1.0054  -13.0622   19.1198 C   0  0  0  0  0  0  0  0  0  0  0  0
    3.1478   -8.5360   28.5161 C   0  0  0  0  0  0  0  0  0  0  0  0
    0.5798   -7.1906   27.9330 C   0  0  0  0  0  0  0  0  0  0  0  0
    0.3978   -5.1561   26.6955 C   0  0  0  0  0  0  0  0  0  0  0  0
    2.3063  -10.0533   30.0125 C   0  0  0  0  0  0  0  0  0  0  0  0
    1.8591   -6.8254   27.4685 N   0  0  0  0  0  0  0  0  0  0  0  0
   -0.2167  -12.1055   18.5568 C   0  0  0  0  0  0  0  0  0  0  0  0
   -2.0661  -10.6994   18.1916 C   0  0  0  0  0  0  0  0  0  0  0  0
    5.2703   -7.5691   27.1123 C   0  0  0  0  0  0  0  0  0  0  0  0
    1.6204   -9.9887   17.2935 C   0  0  0  0  0  0  0  0  0  0  0  0
    1.8931   -7.9265   16.2047 C   0  0  0  0  0  0  0  0  0  0  0  0
    2.4396   -9.0801   16.7132 C   0  0  0  0  0  0  0  0  0  0  0  0
   -0.2575   -8.6234   16.8582 C   0  0  0  0  0  0  0  0  0  0  0  0
    4.0614   -7.0367   27.0106 N   0  0  0  0  0  0  0  0  0  0  0  0
   -2.9133  -11.6279   18.7578 C   0  0  0  0  0  0  0  0  0  0  0  0
    4.5688  -10.1291   29.5758 C   0  0  0  0  0  0  0  0  0  0  0  0
    2.1008   -9.0410   29.1852 N   0  0  0  0  0  0  0  0  0  0  0  0
    3.4829  -10.5697   30.2091 N   0  0  0  0  0  0  0  0  0  0  0  0
   -0.3363   -6.1172   27.5628 C   0  0  0  0  0  0  0  0  0  0  0  0
    3.0331   -7.4400   27.6362 C   0  0  0  0  0  0  0  0  0  0  0  0
    5.4553   -8.5933   27.9644 C   0  0  0  0  0  0  0  0  0  0  0  0
   -2.3870  -12.8440   19.2512 C   0  0  0  0  0  0  0  0  0  0  0  0
    0.5331   -7.6964   16.2751 C   0  0  0  0  0  0  0  0  0  0  0  0
   -0.6740  -10.8737   18.0482 C   0  0  0  0  0  0  0  0  0  0  0  0
    5.6751  -10.5870   29.7637 O   0  0  0  0  0  0  0  0  0  0  0  0
    1.7612   -5.6483   26.7172 C   0  0  0  0  0  0  0  0  0  0  0  0
    0.2221   -9.8326   17.4055 C   0  0  0  0  0  0  0  0  0  0  0  0
    4.3850   -9.0730   28.6745 C   0  0  0  0  0  0  0  0  0  0  0  0
  1  7  4  0
  1 22  4  0
  2 17  4  0
  2 20  4  0
  2 28  4  0
  3  6  1  0
  3 19  1  0
  4 19  1  0
  4 26  1  0
  5 17  4  0
  5 18  4  0
  6 20  1  0
  6 26  1  0
  7 24  4  0
  8 15  4  0
  8 24  4  0
  9 14  4  0
  9 21  4  0
 10 12  4  0
 10 27  4  0
 11 12  4  0
 11 23  4  0
 13 23  4  0
 13 27  4  0
 14 20  4  0
 15 22  4  0
 16 18  4  0
 16 25  2  0
 16 28  4  0
 21 28  4  0
 24 27  1  0
M  END
$$$$

 Created by Python create_sdf_string function

 28 31  0  0  0  0  0  0  0  0999 V2000
   -1.0054  -13.0622   19.1198 C   0  0  0  0  0  0  0  0  0  0  0  0
    3.1478   -8.5360   28.5161 C   0  0  0  0  0  0  0  0  0  0  0  0
    0.5798   -7.1906   27.9330 C   0  0  0  0  0  0  0  0  0  0  0  0
    0.3978   -5.1561   26.6955 C   0  0  0  0  0  0  0  0  0  0  0  0
    2.3063  -10.0533   30.0125 C   0  0  0  0  0  0  0  0  0  0  0  0
    1.8591   -6.8254   27.4685 N   0  0  0  0  0  0  0  0  0  0  0  0
   -0.2167  -12.1055   18.5568 C   0  0  0  0  0  0  0  0  0  0  0  0
   -2.0661  -10.6994   18.1916 C   0  0  0  0  0  0  0  0  0  0  0  0
    5.2703   -7.5691   27.1123 C   0  0  0  0  0  0  0  0  0  0  0  0
    1.6204   -9.9887   17.2935 C   0  0  0  0  0  0  0  0  0  0  0  0
    1.8931   -7.9265   16.2047 C   0  0  0  0  0  0  0  0  0  0  0  0
    2.4396   -9.0801   16.7132 C   0  0  0  0  0  0  0  0  0  0  0  0
   -0.2575   -8.6234   16.8582 C   0  0  0  0  0  0  0  0  0  0  0  0
    4.0614   -7.0367   27.0106 N   0  0  0  0  0  0  0  0  0  0  0  0
   -2.9133  -11.6279   18.7578 C   0  0  0  0  0  0  0  0  0  0  0  0
    4.5688  -10.1291   29.5758 C   0  0  0  0  0  0  0  0  0  0  0  0
    2.1008   -9.0410   29.1852 N   0  0  0  0  0  0  0  0  0  0  0  0
    3.4829  -10.5697   30.2091 N   0  0  0  0  0  0  0  0  0  0  0  0
   -0.3363   -6.1172   27.5628 C   0  0  0  0  0  0  0  0  0  0  0  0
    3.0331   -7.4400   27.6362 C   0  0  0  0  0  0  0  0  0  0  0  0
    5.4553   -8.5933   27.9644 C   0  0  0  0  0  0  0  0  0  0  0  0
   -2.3870  -12.8440   19.2512 C   0  0  0  0  0  0  0  0  0  0  0  0
    0.5331   -7.6964   16.2751 C   0  0  0  0  0  0  0  0  0  0  0  0
   -0.6740  -10.8737   18.0482 C   0  0  0  0  0  0  0  0  0  0  0  0
    5.6751  -10.5870   29.7637 O   0  0  0  0  0  0  0  0  0  0  0  0
    1.7612   -5.6483   26.7172 C   0  0  0  0  0  0  0  0  0  0  0  0
    0.2221   -9.8326   17.4055 C   0  0  0  0  0  0  0  0  0  0  0  0
    4.3850   -9.0730   28.6745 C   0  0  0  0  0  0  0  0  0  0  0  0
  1  7  4  0
  1 22  4  0
  2 17  4  0
  2 20  4  0
  2 28  4  0
  3  6  1  0
  3 19  1  0
  4 19  1  0
  4 26  1  0
  5 17  4  0
  5 18  4  0
  6 20  1  0
  6 26  1  0
  7 24  4  0
  8 15  4  0
  8 24  4  0
  9 14  4  0
  9 21  4  0
 10 12  4  0
 10 27  4  0
 11 12  4  0
 11 23  4  0
 13 23  4  0
 13 27  4  0
 14 20  4  0
 15 22  4  0
 16 18  4  0
 16 25  2  0
 16 28  4  0
 21 28  4  0
 24 27  1  0
M  END
$$$$

 Created by Python create_sdf_string function

 28 31  0  0  0  0  0  0  0  0999 V2000
   -1.0054  -13.0622   19.1198 C   0  0  0  0  0  0  0  0  0  0  0  0
    3.1478   -8.5360   28.5161 C   0  0  0  0  0  0  0  0  0  0  0  0
    0.5798   -7.1906   27.9330 C   0  0  0  0  0  0  0  0  0  0  0  0
    0.3978   -5.1561   26.6955 C   0  0  0  0  0  0  0  0  0  0  0  0
    2.3063  -10.0533   30.0125 C   0  0  0  0  0  0  0  0  0  0  0  0
    1.8591   -6.8254   27.4685 N   0  0  0  0  0  0  0  0  0  0  0  0
   -0.2167  -12.1055   18.5568 C   0  0  0  0  0  0  0  0  0  0  0  0
   -2.0661  -10.6994   18.1916 C   0  0  0  0  0  0  0  0  0  0  0  0
    5.2703   -7.5691   27.1123 C   0  0  0  0  0  0  0  0  0  0  0  0
    1.6204   -9.9887   17.2935 C   0  0  0  0  0  0  0  0  0  0  0  0
    1.8931   -7.9265   16.2047 C   0  0  0  0  0  0  0  0  0  0  0  0
    2.4396   -9.0801   16.7132 C   0  0  0  0  0  0  0  0  0  0  0  0
   -0.2575   -8.6234   16.8582 C   0  0  0  0  0  0  0  0  0  0  0  0
    4.0614   -7.0367   27.0106 N   0  0  0  0  0  0  0  0  0  0  0  0
   -2.9133  -11.6279   18.7578 C   0  0  0  0  0  0  0  0  0  0  0  0
    4.5688  -10.1291   29.5758 C   0  0  0  0  0  0  0  0  0  0  0  0
    2.1008   -9.0410   29.1852 N   0  0  0  0  0  0  0  0  0  0  0  0
    3.4829  -10.5697   30.2091 N   0  0  0  0  0  0  0  0  0  0  0  0
   -0.3363   -6.1172   27.5628 C   0  0  0  0  0  0  0  0  0  0  0  0
    3.0331   -7.4400   27.6362 C   0  0  0  0  0  0  0  0  0  0  0  0
    5.4553   -8.5933   27.9644 C   0  0  0  0  0  0  0  0  0  0  0  0
   -2.3870  -12.8440   19.2512 C   0  0  0  0  0  0  0  0  0  0  0  0
    0.5331   -7.6964   16.2751 C   0  0  0  0  0  0  0  0  0  0  0  0
   -0.6740  -10.8737   18.0482 C   0  0  0  0  0  0  0  0  0  0  0  0
    5.6751  -10.5870   29.7637 O   0  0  0  0  0  0  0  0  0  0  0  0
    1.7612   -5.6483   26.7172 C   0  0  0  0  0  0  0  0  0  0  0  0
    0.2221   -9.8326   17.4055 C   0  0  0  0  0  0  0  0  0  0  0  0
    4.3850   -9.0730   28.6745 C   0  0  0  0  0  0  0  0  0  0  0  0
  1  7  4  0
  1 22  4  0
  2 17  4  0
  2 20  4  0
  2 28  4  0
  3  6  1  0
  3 19  1  0
  4 19  1  0
  4 26  1  0
  5 17  4  0
  5 18  4  0
  6 20  1  0
  6 26  1  0
  7 24  4  0
  8 15  4  0
  8 24  4  0
  9 14  4  0
  9 21  4  0
 10 12  4  0
 10 27  4  0
 11 12  4  0
 11 23  4  0
 13 23  4  0
 13 27  4  0
 14 20  4  0
 15 22  4  0
 16 18  4  0
 16 25  2  0
 16 28  4  0
 21 28  4  0
 24 27  1  0
M  END
$$$$

 Created by Python create_sdf_string function

 28 31  0  0  0  0  0  0  0  0999 V2000
   -1.0054  -13.0622   19.1198 C   0  0  0  0  0  0  0  0  0  0  0  0
    3.1478   -8.5360   28.5161 C   0  0  0  0  0  0  0  0  0  0  0  0
    0.5798   -7.1906   27.9330 C   0  0  0  0  0  0  0  0  0  0  0  0
    0.3978   -5.1561   26.6955 C   0  0  0  0  0  0  0  0  0  0  0  0
    2.3063  -10.0533   30.0125 C   0  0  0  0  0  0  0  0  0  0  0  0
    1.8591   -6.8254   27.4685 N   0  0  0  0  0  0  0  0  0  0  0  0
   -0.2167  -12.1055   18.5568 C   0  0  0  0  0  0  0  0  0  0  0  0
   -2.0661  -10.6994   18.1916 C   0  0  0  0  0  0  0  0  0  0  0  0
    5.2703   -7.5691   27.1123 C   0  0  0  0  0  0  0  0  0  0  0  0
    1.6204   -9.9887   17.2935 C   0  0  0  0  0  0  0  0  0  0  0  0
    1.8931   -7.9265   16.2047 C   0  0  0  0  0  0  0  0  0  0  0  0
    2.4396   -9.0801   16.7132 C   0  0  0  0  0  0  0  0  0  0  0  0
   -0.2575   -8.6234   16.8582 C   0  0  0  0  0  0  0  0  0  0  0  0
    4.0614   -7.0367   27.0106 N   0  0  0  0  0  0  0  0  0  0  0  0
   -2.9133  -11.6279   18.7578 C   0  0  0  0  0  0  0  0  0  0  0  0
    4.5688  -10.1291   29.5758 C   0  0  0  0  0  0  0  0  0  0  0  0
    2.1008   -9.0410   29.1852 N   0  0  0  0  0  0  0  0  0  0  0  0
    3.4829  -10.5697   30.2091 N   0  0  0  0  0  0  0  0  0  0  0  0
   -0.3363   -6.1172   27.5628 C   0  0  0  0  0  0  0  0  0  0  0  0
    3.0331   -7.4400   27.6362 C   0  0  0  0  0  0  0  0  0  0  0  0
    5.4553   -8.5933   27.9644 C   0  0  0  0  0  0  0  0  0  0  0  0
   -2.3870  -12.8440   19.2512 C   0  0  0  0  0  0  0  0  0  0  0  0
    0.5331   -7.6964   16.2751 C   0  0  0  0  0  0  0  0  0  0  0  0
   -0.6740  -10.8737   18.0482 C   0  0  0  0  0  0  0  0  0  0  0  0
    5.6751  -10.5870   29.7637 O   0  0  0  0  0  0  0  0  0  0  0  0
    1.7612   -5.6483   26.7172 C   0  0  0  0  0  0  0  0  0  0  0  0
    0.2221   -9.8326   17.4055 C   0  0  0  0  0  0  0  0  0  0  0  0
    4.3850   -9.0730   28.6745 C   0  0  0  0  0  0  0  0  0  0  0  0
  1  7  4  0
  1 22  4  0
  2 17  4  0
  2 20  4  0
  2 28  4  0
  3  6  1  0
  3 19  1  0
  4 19  1  0
  4 26  1  0
  5 17  4  0
  5 18  4  0
  6 20  1  0
  6 26  1  0
  7 24  4  0
  8 15  4  0
  8 24  4  0
  9 14  4  0
  9 21  4  0
 10 12  4  0
 10 27  4  0
 11 12  4  0
 11 23  4  0
 13 23  4  0
 13 27  4  0
 14 20  4  0
 15 22  4  0
 16 18  4  0
 16 25  2  0
 16 28  4  0
 21 28  4  0
 24 27  1  0
M  END
$$$$

 Created by Python create_sdf_string function

 28 31  0  0  0  0  0  0  0  0999 V2000
   -1.0054  -13.0622   19.1198 C   0  0  0  0  0  0  0  0  0  0  0  0
    3.1478   -8.5360   28.5161 C   0  0  0  0  0  0  0  0  0  0  0  0
    0.5798   -7.1906   27.9330 C   0  0  0  0  0  0  0  0  0  0  0  0
    0.3978   -5.1561   26.6955 C   0  0  0  0  0  0  0  0  0  0  0  0
    2.3063  -10.0533   30.0125 C   0  0  0  0  0  0  0  0  0  0  0  0
    1.8591   -6.8254   27.4685 N   0  0  0  0  0  0  0  0  0  0  0  0
   -0.2167  -12.1055   18.5568 C   0  0  0  0  0  0  0  0  0  0  0  0
   -2.0661  -10.6994   18.1916 C   0  0  0  0  0  0  0  0  0  0  0  0
    5.2703   -7.5691   27.1123 C   0  0  0  0  0  0  0  0  0  0  0  0
    1.6204   -9.9887   17.2935 C   0  0  0  0  0  0  0  0  0  0  0  0
    1.8931   -7.9265   16.2047 C   0  0  0  0  0  0  0  0  0  0  0  0
    2.4396   -9.0801   16.7132 C   0  0  0  0  0  0  0  0  0  0  0  0
   -0.2575   -8.6234   16.8582 C   0  0  0  0  0  0  0  0  0  0  0  0
    4.0614   -7.0367   27.0106 N   0  0  0  0  0  0  0  0  0  0  0  0
   -2.9133  -11.6279   18.7578 C   0  0  0  0  0  0  0  0  0  0  0  0
    4.5688  -10.1291   29.5758 C   0  0  0  0  0  0  0  0  0  0  0  0
    2.1008   -9.0410   29.1852 N   0  0  0  0  0  0  0  0  0  0  0  0
    3.4829  -10.5697   30.2091 N   0  0  0  0  0  0  0  0  0  0  0  0
   -0.3363   -6.1172   27.5628 C   0  0  0  0  0  0  0  0  0  0  0  0
    3.0331   -7.4400   27.6362 C   0  0  0  0  0  0  0  0  0  0  0  0
    5.4553   -8.5933   27.9644 C   0  0  0  0  0  0  0  0  0  0  0  0
   -2.3870  -12.8440   19.2512 C   0  0  0  0  0  0  0  0  0  0  0  0
    0.5331   -7.6964   16.2751 C   0  0  0  0  0  0  0  0  0  0  0  0
   -0.6740  -10.8737   18.0482 C   0  0  0  0  0  0  0  0  0  0  0  0
    5.6751  -10.5870   29.7637 O   0  0  0  0  0  0  0  0  0  0  0  0
    1.7612   -5.6483   26.7172 C   0  0  0  0  0  0  0  0  0  0  0  0
    0.2221   -9.8326   17.4055 C   0  0  0  0  0  0  0  0  0  0  0  0
    4.3850   -9.0730   28.6745 C   0  0  0  0  0  0  0  0  0  0  0  0
  1  7  4  0
  1 22  4  0
  2 17  4  0
  2 20  4  0
  2 28  4  0
  3  6  1  0
  3 19  1  0
  4 19  1  0
  4 26  1  0
  5 17  4  0
  5 18  4  0
  6 20  1  0
  6 26  1  0
  7 24  4  0
  8 15  4  0
  8 24  4  0
  9 14  4  0
  9 21  4  0
 10 12  4  0
 10 27  4  0
 11 12  4  0
 11 23  4  0
 13 23  4  0
 13 27  4  0
 14 20  4  0
 15 22  4  0
 16 18  4  0
 16 25  2  0
 16 28  4  0
 21 28  4  0
 24 27  1  0
M  END
$$$$

 Created by Python create_sdf_string function

 28 31  0  0  0  0  0  0  0  0999 V2000
   -1.0054  -13.0622   19.1198 C   0  0  0  0  0  0  0  0  0  0  0  0
    3.1478   -8.5360   28.5161 C   0  0  0  0  0  0  0  0  0  0  0  0
    0.5798   -7.1906   27.9330 C   0  0  0  0  0  0  0  0  0  0  0  0
    0.3978   -5.1561   26.6955 C   0  0  0  0  0  0  0  0  0  0  0  0
    2.3063  -10.0533   30.0125 C   0  0  0  0  0  0  0  0  0  0  0  0
    1.8591   -6.8254   27.4685 N   0  0  0  0  0  0  0  0  0  0  0  0
   -0.2167  -12.1055   18.5568 C   0  0  0  0  0  0  0  0  0  0  0  0
   -2.0661  -10.6994   18.1916 C   0  0  0  0  0  0  0  0  0  0  0  0
    5.2703   -7.5691   27.1123 C   0  0  0  0  0  0  0  0  0  0  0  0
    1.6204   -9.9887   17.2935 C   0  0  0  0  0  0  0  0  0  0  0  0
    1.8931   -7.9265   16.2047 C   0  0  0  0  0  0  0  0  0  0  0  0
    2.4396   -9.0801   16.7132 C   0  0  0  0  0  0  0  0  0  0  0  0
   -0.2575   -8.6234   16.8582 C   0  0  0  0  0  0  0  0  0  0  0  0
    4.0614   -7.0367   27.0106 N   0  0  0  0  0  0  0  0  0  0  0  0
   -2.9133  -11.6279   18.7578 C   0  0  0  0  0  0  0  0  0  0  0  0
    4.5688  -10.1291   29.5758 C   0  0  0  0  0  0  0  0  0  0  0  0
    2.1008   -9.0410   29.1852 N   0  0  0  0  0  0  0  0  0  0  0  0
    3.4829  -10.5697   30.2091 N   0  0  0  0  0  0  0  0  0  0  0  0
   -0.3363   -6.1172   27.5628 C   0  0  0  0  0  0  0  0  0  0  0  0
    3.0331   -7.4400   27.6362 C   0  0  0  0  0  0  0  0  0  0  0  0
    5.4553   -8.5933   27.9644 C   0  0  0  0  0  0  0  0  0  0  0  0
   -2.3870  -12.8440   19.2512 C   0  0  0  0  0  0  0  0  0  0  0  0
    0.5331   -7.6964   16.2751 C   0  0  0  0  0  0  0  0  0  0  0  0
   -0.6740  -10.8737   18.0482 C   0  0  0  0  0  0  0  0  0  0  0  0
    5.6751  -10.5870   29.7637 O   0  0  0  0  0  0  0  0  0  0  0  0
    1.7612   -5.6483   26.7172 C   0  0  0  0  0  0  0  0  0  0  0  0
    0.2221   -9.8326   17.4055 C   0  0  0  0  0  0  0  0  0  0  0  0
    4.3850   -9.0730   28.6745 C   0  0  0  0  0  0  0  0  0  0  0  0
  1  7  4  0
  1 22  4  0
  2 17  4  0
  2 20  4  0
  2 28  4  0
  3  6  1  0
  3 19  1  0
  4 19  1  0
  4 26  1  0
  5 17  4  0
  5 18  4  0
  6 20  1  0
  6 26  1  0
  7 24  4  0
  8 15  4  0
  8 24  4  0
  9 14  4  0
  9 21  4  0
 10 12  4  0
 10 27  4  0
 11 12  4  0
 11 23  4  0
 13 23  4  0
 13 27  4  0
 14 20  4  0
 15 22  4  0
 16 18  4  0
 16 25  2  0
 16 28  4  0
 21 28  4  0
 24 27  1  0
M  END
$$$$

 Created by Python create_sdf_string function

 28 31  0  0  0  0  0  0  0  0999 V2000
   -1.0054  -13.0622   19.1198 C   0  0  0  0  0  0  0  0  0  0  0  0
    3.1478   -8.5360   28.5161 C   0  0  0  0  0  0  0  0  0  0  0  0
    0.5798   -7.1906   27.9330 C   0  0  0  0  0  0  0  0  0  0  0  0
    0.3978   -5.1561   26.6955 C   0  0  0  0  0  0  0  0  0  0  0  0
    2.3063  -10.0533   30.0125 C   0  0  0  0  0  0  0  0  0  0  0  0
    1.8591   -6.8254   27.4685 N   0  0  0  0  0  0  0  0  0  0  0  0
   -0.2167  -12.1055   18.5568 C   0  0  0  0  0  0  0  0  0  0  0  0
   -2.0661  -10.6994   18.1916 C   0  0  0  0  0  0  0  0  0  0  0  0
    5.2703   -7.5691   27.1123 C   0  0  0  0  0  0  0  0  0  0  0  0
    1.6204   -9.9887   17.2935 C   0  0  0  0  0  0  0  0  0  0  0  0
    1.8931   -7.9265   16.2047 C   0  0  0  0  0  0  0  0  0  0  0  0
    2.4396   -9.0801   16.7132 C   0  0  0  0  0  0  0  0  0  0  0  0
   -0.2575   -8.6234   16.8582 C   0  0  0  0  0  0  0  0  0  0  0  0
    4.0614   -7.0367   27.0106 N   0  0  0  0  0  0  0  0  0  0  0  0
   -2.9133  -11.6279   18.7578 C   0  0  0  0  0  0  0  0  0  0  0  0
    4.5688  -10.1291   29.5758 C   0  0  0  0  0  0  0  0  0  0  0  0
    2.1008   -9.0410   29.1852 N   0  0  0  0  0  0  0  0  0  0  0  0
    3.4829  -10.5697   30.2091 N   0  0  0  0  0  0  0  0  0  0  0  0
   -0.3363   -6.1172   27.5628 C   0  0  0  0  0  0  0  0  0  0  0  0
    3.0331   -7.4400   27.6362 C   0  0  0  0  0  0  0  0  0  0  0  0
    5.4553   -8.5933   27.9644 C   0  0  0  0  0  0  0  0  0  0  0  0
   -2.3870  -12.8440   19.2512 C   0  0  0  0  0  0  0  0  0  0  0  0
    0.5331   -7.6964   16.2751 C   0  0  0  0  0  0  0  0  0  0  0  0
   -0.6740  -10.8737   18.0482 C   0  0  0  0  0  0  0  0  0  0  0  0
    5.6751  -10.5870   29.7637 O   0  0  0  0  0  0  0  0  0  0  0  0
    1.7612   -5.6483   26.7172 C   0  0  0  0  0  0  0  0  0  0  0  0
    0.2221   -9.8326   17.4055 C   0  0  0  0  0  0  0  0  0  0  0  0
    4.3850   -9.0730   28.6745 C   0  0  0  0  0  0  0  0  0  0  0  0
  1  7  4  0
  1 22  4  0
  2 17  4  0
  2 20  4  0
  2 28  4  0
  3  6  1  0
  3 19  1  0
  4 19  1  0
  4 26  1  0
  5 17  4  0
  5 18  4  0
  6 20  1  0
  6 26  1  0
  7 24  4  0
  8 15  4  0
  8 24  4  0
  9 14  4  0
  9 21  4  0
 10 12  4  0
 10 27  4  0
 11 12  4  0
 11 23  4  0
 13 23  4  0
 13 27  4  0
 14 20  4  0
 15 22  4  0
 16 18  4  0
 16 25  2  0
 16 28  4  0
 21 28  4  0
 24 27  1  0
M  END
$$$$

 Created by Python create_sdf_string function

 28 31  0  0  0  0  0  0  0  0999 V2000
   -1.0054  -13.0622   19.1198 C   0  0  0  0  0  0  0  0  0  0  0  0
    3.1478   -8.5360   28.5161 C   0  0  0  0  0  0  0  0  0  0  0  0
    0.5798   -7.1906   27.9330 C   0  0  0  0  0  0  0  0  0  0  0  0
    0.3978   -5.1561   26.6955 C   0  0  0  0  0  0  0  0  0  0  0  0
    2.3063  -10.0533   30.0125 C   0  0  0  0  0  0  0  0  0  0  0  0
    1.8591   -6.8254   27.4685 N   0  0  0  0  0  0  0  0  0  0  0  0
   -0.2167  -12.1055   18.5568 C   0  0  0  0  0  0  0  0  0  0  0  0
   -2.0661  -10.6994   18.1916 C   0  0  0  0  0  0  0  0  0  0  0  0
    5.2703   -7.5691   27.1123 C   0  0  0  0  0  0  0  0  0  0  0  0
    1.6204   -9.9887   17.2935 C   0  0  0  0  0  0  0  0  0  0  0  0
    1.8931   -7.9265   16.2047 C   0  0  0  0  0  0  0  0  0  0  0  0
    2.4396   -9.0801   16.7132 C   0  0  0  0  0  0  0  0  0  0  0  0
   -0.2575   -8.6234   16.8582 C   0  0  0  0  0  0  0  0  0  0  0  0
    4.0614   -7.0367   27.0106 N   0  0  0  0  0  0  0  0  0  0  0  0
   -2.9133  -11.6279   18.7578 C   0  0  0  0  0  0  0  0  0  0  0  0
    4.5688  -10.1291   29.5758 C   0  0  0  0  0  0  0  0  0  0  0  0
    2.1008   -9.0410   29.1852 N   0  0  0  0  0  0  0  0  0  0  0  0
    3.4829  -10.5697   30.2091 N   0  0  0  0  0  0  0  0  0  0  0  0
   -0.3363   -6.1172   27.5628 C   0  0  0  0  0  0  0  0  0  0  0  0
    3.0331   -7.4400   27.6362 C   0  0  0  0  0  0  0  0  0  0  0  0
    5.4553   -8.5933   27.9644 C   0  0  0  0  0  0  0  0  0  0  0  0
   -2.3870  -12.8440   19.2512 C   0  0  0  0  0  0  0  0  0  0  0  0
    0.5331   -7.6964   16.2751 C   0  0  0  0  0  0  0  0  0  0  0  0
   -0.6740  -10.8737   18.0482 C   0  0  0  0  0  0  0  0  0  0  0  0
    5.6751  -10.5870   29.7637 O   0  0  0  0  0  0  0  0  0  0  0  0
    1.7612   -5.6483   26.7172 C   0  0  0  0  0  0  0  0  0  0  0  0
    0.2221   -9.8326   17.4055 C   0  0  0  0  0  0  0  0  0  0  0  0
    4.3850   -9.0730   28.6745 C   0  0  0  0  0  0  0  0  0  0  0  0
  1  7  4  0
  1 22  4  0
  2 17  4  0
  2 20  4  0
  2 28  4  0
  3  6  1  0
  3 19  1  0
  4 19  1  0
  4 26  1  0
  5 17  4  0
  5 18  4  0
  6 20  1  0
  6 26  1  0
  7 24  4  0
  8 15  4  0
  8 24  4  0
  9 14  4  0
  9 21  4  0
 10 12  4  0
 10 27  4  0
 11 12  4  0
 11 23  4  0
 13 23  4  0
 13 27  4  0
 14 20  4  0
 15 22  4  0
 16 18  4  0
 16 25  2  0
 16 28  4  0
 21 28  4  0
 24 27  1  0
M  END
$$$$

 Created by Python create_sdf_string function

 28 31  0  0  0  0  0  0  0  0999 V2000
   -1.0054  -13.0622   19.1198 C   0  0  0  0  0  0  0  0  0  0  0  0
    3.1478   -8.5360   28.5161 C   0  0  0  0  0  0  0  0  0  0  0  0
    0.5798   -7.1906   27.9330 C   0  0  0  0  0  0  0  0  0  0  0  0
    0.3978   -5.1561   26.6955 C   0  0  0  0  0  0  0  0  0  0  0  0
    2.3063  -10.0533   30.0125 C   0  0  0  0  0  0  0  0  0  0  0  0
    1.8591   -6.8254   27.4685 N   0  0  0  0  0  0  0  0  0  0  0  0
   -0.2167  -12.1055   18.5568 C   0  0  0  0  0  0  0  0  0  0  0  0
   -2.0661  -10.6994   18.1916 C   0  0  0  0  0  0  0  0  0  0  0  0
    5.2703   -7.5691   27.1123 C   0  0  0  0  0  0  0  0  0  0  0  0
    1.6204   -9.9887   17.2935 C   0  0  0  0  0  0  0  0  0  0  0  0
    1.8931   -7.9265   16.2047 C   0  0  0  0  0  0  0  0  0  0  0  0
    2.4396   -9.0801   16.7132 C   0  0  0  0  0  0  0  0  0  0  0  0
   -0.2575   -8.6234   16.8582 C   0  0  0  0  0  0  0  0  0  0  0  0
    4.0614   -7.0367   27.0106 N   0  0  0  0  0  0  0  0  0  0  0  0
   -2.9133  -11.6279   18.7578 C   0  0  0  0  0  0  0  0  0  0  0  0
    4.5688  -10.1291   29.5758 C   0  0  0  0  0  0  0  0  0  0  0  0
    2.1008   -9.0410   29.1852 N   0  0  0  0  0  0  0  0  0  0  0  0
    3.4829  -10.5697   30.2091 N   0  0  0  0  0  0  0  0  0  0  0  0
   -0.3363   -6.1172   27.5628 C   0  0  0  0  0  0  0  0  0  0  0  0
    3.0331   -7.4400   27.6362 C   0  0  0  0  0  0  0  0  0  0  0  0
    5.4553   -8.5933   27.9644 C   0  0  0  0  0  0  0  0  0  0  0  0
   -2.3870  -12.8440   19.2512 C   0  0  0  0  0  0  0  0  0  0  0  0
    0.5331   -7.6964   16.2751 C   0  0  0  0  0  0  0  0  0  0  0  0
   -0.6740  -10.8737   18.0482 C   0  0  0  0  0  0  0  0  0  0  0  0
    5.6751  -10.5870   29.7637 O   0  0  0  0  0  0  0  0  0  0  0  0
    1.7612   -5.6483   26.7172 C   0  0  0  0  0  0  0  0  0  0  0  0
    0.2221   -9.8326   17.4055 C   0  0  0  0  0  0  0  0  0  0  0  0
    4.3850   -9.0730   28.6745 C   0  0  0  0  0  0  0  0  0  0  0  0
  1  7  4  0
  1 22  4  0
  2 17  4  0
  2 20  4  0
  2 28  4  0
  3  6  1  0
  3 19  1  0
  4 19  1  0
  4 26  1  0
  5 17  4  0
  5 18  4  0
  6 20  1  0
  6 26  1  0
  7 24  4  0
  8 15  4  0
  8 24  4  0
  9 14  4  0
  9 21  4  0
 10 12  4  0
 10 27  4  0
 11 12  4  0
 11 23  4  0
 13 23  4  0
 13 27  4  0
 14 20  4  0
 15 22  4  0
 16 18  4  0
 16 25  2  0
 16 28  4  0
 21 28  4  0
 24 27  1  0
M  END
$$$$

 Created by Python create_sdf_string function

 28 31  0  0  0  0  0  0  0  0999 V2000
   -1.0054  -13.0622   19.1198 C   0  0  0  0  0  0  0  0  0  0  0  0
    3.1478   -8.5360   28.5161 C   0  0  0  0  0  0  0  0  0  0  0  0
    0.5798   -7.1906   27.9330 C   0  0  0  0  0  0  0  0  0  0  0  0
    0.3978   -5.1561   26.6955 C   0  0  0  0  0  0  0  0  0  0  0  0
    2.3063  -10.0533   30.0125 C   0  0  0  0  0  0  0  0  0  0  0  0
    1.8591   -6.8254   27.4685 N   0  0  0  0  0  0  0  0  0  0  0  0
   -0.2167  -12.1055   18.5568 C   0  0  0  0  0  0  0  0  0  0  0  0
   -2.0661  -10.6994   18.1916 C   0  0  0  0  0  0  0  0  0  0  0  0
    5.2703   -7.5691   27.1123 C   0  0  0  0  0  0  0  0  0  0  0  0
    1.6204   -9.9887   17.2935 C   0  0  0  0  0  0  0  0  0  0  0  0
    1.8931   -7.9265   16.2047 C   0  0  0  0  0  0  0  0  0  0  0  0
    2.4396   -9.0801   16.7132 C   0  0  0  0  0  0  0  0  0  0  0  0
   -0.2575   -8.6234   16.8582 C   0  0  0  0  0  0  0  0  0  0  0  0
    4.0614   -7.0367   27.0106 N   0  0  0  0  0  0  0  0  0  0  0  0
   -2.9133  -11.6279   18.7578 C   0  0  0  0  0  0  0  0  0  0  0  0
    4.5688  -10.1291   29.5758 C   0  0  0  0  0  0  0  0  0  0  0  0
    2.1008   -9.0410   29.1852 N   0  0  0  0  0  0  0  0  0  0  0  0
    3.4829  -10.5697   30.2091 N   0  0  0  0  0  0  0  0  0  0  0  0
   -0.3363   -6.1172   27.5628 C   0  0  0  0  0  0  0  0  0  0  0  0
    3.0331   -7.4400   27.6362 C   0  0  0  0  0  0  0  0  0  0  0  0
    5.4553   -8.5933   27.9644 C   0  0  0  0  0  0  0  0  0  0  0  0
   -2.3870  -12.8440   19.2512 C   0  0  0  0  0  0  0  0  0  0  0  0
    0.5331   -7.6964   16.2751 C   0  0  0  0  0  0  0  0  0  0  0  0
   -0.6740  -10.8737   18.0482 C   0  0  0  0  0  0  0  0  0  0  0  0
    5.6751  -10.5870   29.7637 O   0  0  0  0  0  0  0  0  0  0  0  0
    1.7612   -5.6483   26.7172 C   0  0  0  0  0  0  0  0  0  0  0  0
    0.2221   -9.8326   17.4055 C   0  0  0  0  0  0  0  0  0  0  0  0
    4.3850   -9.0730   28.6745 C   0  0  0  0  0  0  0  0  0  0  0  0
  1  7  4  0
  1 22  4  0
  2 17  4  0
  2 20  4  0
  2 28  4  0
  3  6  1  0
  3 19  1  0
  4 19  1  0
  4 26  1  0
  5 17  4  0
  5 18  4  0
  6 20  1  0
  6 26  1  0
  7 24  4  0
  8 15  4  0
  8 24  4  0
  9 14  4  0
  9 21  4  0
 10 12  4  0
 10 27  4  0
 11 12  4  0
 11 23  4  0
 13 23  4  0
 13 27  4  0
 14 20  4  0
 15 22  4  0
 16 18  4  0
 16 25  2  0
 16 28  4  0
 21 28  4  0
 24 27  1  0
M  END
$$$$

 Created by Python create_sdf_string function

 28 31  0  0  0  0  0  0  0  0999 V2000
   -1.0054  -13.0622   19.1198 C   0  0  0  0  0  0  0  0  0  0  0  0
    3.1478   -8.5360   28.5161 C   0  0  0  0  0  0  0  0  0  0  0  0
    0.5798   -7.1906   27.9330 C   0  0  0  0  0  0  0  0  0  0  0  0
    0.3978   -5.1561   26.6955 C   0  0  0  0  0  0  0  0  0  0  0  0
    2.3063  -10.0533   30.0125 C   0  0  0  0  0  0  0  0  0  0  0  0
    1.8591   -6.8254   27.4685 N   0  0  0  0  0  0  0  0  0  0  0  0
   -0.2167  -12.1055   18.5568 C   0  0  0  0  0  0  0  0  0  0  0  0
   -2.0661  -10.6994   18.1916 C   0  0  0  0  0  0  0  0  0  0  0  0
    5.2703   -7.5691   27.1123 C   0  0  0  0  0  0  0  0  0  0  0  0
    1.6204   -9.9887   17.2935 C   0  0  0  0  0  0  0  0  0  0  0  0
    1.8931   -7.9265   16.2047 C   0  0  0  0  0  0  0  0  0  0  0  0
    2.4396   -9.0801   16.7132 C   0  0  0  0  0  0  0  0  0  0  0  0
   -0.2575   -8.6234   16.8582 C   0  0  0  0  0  0  0  0  0  0  0  0
    4.0614   -7.0367   27.0106 N   0  0  0  0  0  0  0  0  0  0  0  0
   -2.9133  -11.6279   18.7578 C   0  0  0  0  0  0  0  0  0  0  0  0
    4.5688  -10.1291   29.5758 C   0  0  0  0  0  0  0  0  0  0  0  0
    2.1008   -9.0410   29.1852 N   0  0  0  0  0  0  0  0  0  0  0  0
    3.4829  -10.5697   30.2091 N   0  0  0  0  0  0  0  0  0  0  0  0
   -0.3363   -6.1172   27.5628 C   0  0  0  0  0  0  0  0  0  0  0  0
    3.0331   -7.4400   27.6362 C   0  0  0  0  0  0  0  0  0  0  0  0
    5.4553   -8.5933   27.9644 C   0  0  0  0  0  0  0  0  0  0  0  0
   -2.3870  -12.8440   19.2512 C   0  0  0  0  0  0  0  0  0  0  0  0
    0.5331   -7.6964   16.2751 C   0  0  0  0  0  0  0  0  0  0  0  0
   -0.6740  -10.8737   18.0482 C   0  0  0  0  0  0  0  0  0  0  0  0
    5.6751  -10.5870   29.7637 O   0  0  0  0  0  0  0  0  0  0  0  0
    1.7612   -5.6483   26.7172 C   0  0  0  0  0  0  0  0  0  0  0  0
    0.2221   -9.8326   17.4055 C   0  0  0  0  0  0  0  0  0  0  0  0
    4.3850   -9.0730   28.6745 C   0  0  0  0  0  0  0  0  0  0  0  0
  1  7  4  0
  1 22  4  0
  2 17  4  0
  2 20  4  0
  2 28  4  0
  3  6  1  0
  3 19  1  0
  4 19  1  0
  4 26  1  0
  5 17  4  0
  5 18  4  0
  6 20  1  0
  6 26  1  0
  7 24  4  0
  8 15  4  0
  8 24  4  0
  9 14  4  0
  9 21  4  0
 10 12  4  0
 10 27  4  0
 11 12  4  0
 11 23  4  0
 13 23  4  0
 13 27  4  0
 14 20  4  0
 15 22  4  0
 16 18  4  0
 16 25  2  0
 16 28  4  0
 21 28  4  0
 24 27  1  0
M  END
$$$$

 Created by Python create_sdf_string function

 28 31  0  0  0  0  0  0  0  0999 V2000
   -1.0054  -13.0622   19.1198 C   0  0  0  0  0  0  0  0  0  0  0  0
    3.1478   -8.5360   28.5161 C   0  0  0  0  0  0  0  0  0  0  0  0
    0.5798   -7.1906   27.9330 C   0  0  0  0  0  0  0  0  0  0  0  0
    0.3978   -5.1561   26.6955 C   0  0  0  0  0  0  0  0  0  0  0  0
    2.3063  -10.0533   30.0125 C   0  0  0  0  0  0  0  0  0  0  0  0
    1.8591   -6.8254   27.4685 N   0  0  0  0  0  0  0  0  0  0  0  0
   -0.2167  -12.1055   18.5568 C   0  0  0  0  0  0  0  0  0  0  0  0
   -2.0661  -10.6994   18.1916 C   0  0  0  0  0  0  0  0  0  0  0  0
    5.2703   -7.5691   27.1123 C   0  0  0  0  0  0  0  0  0  0  0  0
    1.6204   -9.9887   17.2935 C   0  0  0  0  0  0  0  0  0  0  0  0
    1.8931   -7.9265   16.2047 C   0  0  0  0  0  0  0  0  0  0  0  0
    2.4396   -9.0801   16.7132 C   0  0  0  0  0  0  0  0  0  0  0  0
   -0.2575   -8.6234   16.8582 C   0  0  0  0  0  0  0  0  0  0  0  0
    4.0614   -7.0367   27.0106 N   0  0  0  0  0  0  0  0  0  0  0  0
   -2.9133  -11.6279   18.7578 C   0  0  0  0  0  0  0  0  0  0  0  0
    4.5688  -10.1291   29.5758 C   0  0  0  0  0  0  0  0  0  0  0  0
    2.1008   -9.0410   29.1852 N   0  0  0  0  0  0  0  0  0  0  0  0
    3.4829  -10.5697   30.2091 N   0  0  0  0  0  0  0  0  0  0  0  0
   -0.3363   -6.1172   27.5628 C   0  0  0  0  0  0  0  0  0  0  0  0
    3.0331   -7.4400   27.6362 C   0  0  0  0  0  0  0  0  0  0  0  0
    5.4553   -8.5933   27.9644 C   0  0  0  0  0  0  0  0  0  0  0  0
   -2.3870  -12.8440   19.2512 C   0  0  0  0  0  0  0  0  0  0  0  0
    0.5331   -7.6964   16.2751 C   0  0  0  0  0  0  0  0  0  0  0  0
   -0.6740  -10.8737   18.0482 C   0  0  0  0  0  0  0  0  0  0  0  0
    5.6751  -10.5870   29.7637 O   0  0  0  0  0  0  0  0  0  0  0  0
    1.7612   -5.6483   26.7172 C   0  0  0  0  0  0  0  0  0  0  0  0
    0.2221   -9.8326   17.4055 C   0  0  0  0  0  0  0  0  0  0  0  0
    4.3850   -9.0730   28.6745 C   0  0  0  0  0  0  0  0  0  0  0  0
  1  7  4  0
  1 22  4  0
  2 17  4  0
  2 20  4  0
  2 28  4  0
  3  6  1  0
  3 19  1  0
  4 19  1  0
  4 26  1  0
  5 17  4  0
  5 18  4  0
  6 20  1  0
  6 26  1  0
  7 24  4  0
  8 15  4  0
  8 24  4  0
  9 14  4  0
  9 21  4  0
 10 12  4  0
 10 27  4  0
 11 12  4  0
 11 23  4  0
 13 23  4  0
 13 27  4  0
 14 20  4  0
 15 22  4  0
 16 18  4  0
 16 25  2  0
 16 28  4  0
 21 28  4  0
 24 27  1  0
M  END
$$$$

 Created by Python create_sdf_string function

 28 31  0  0  0  0  0  0  0  0999 V2000
   -1.0054  -13.0622   19.1198 C   0  0  0  0  0  0  0  0  0  0  0  0
    3.1478   -8.5360   28.5161 C   0  0  0  0  0  0  0  0  0  0  0  0
    0.5798   -7.1906   27.9330 C   0  0  0  0  0  0  0  0  0  0  0  0
    0.3978   -5.1561   26.6955 C   0  0  0  0  0  0  0  0  0  0  0  0
    2.3063  -10.0533   30.0125 C   0  0  0  0  0  0  0  0  0  0  0  0
    1.8591   -6.8254   27.4685 N   0  0  0  0  0  0  0  0  0  0  0  0
   -0.2167  -12.1055   18.5568 C   0  0  0  0  0  0  0  0  0  0  0  0
   -2.0661  -10.6994   18.1916 C   0  0  0  0  0  0  0  0  0  0  0  0
    5.2703   -7.5691   27.1123 C   0  0  0  0  0  0  0  0  0  0  0  0
    1.6204   -9.9887   17.2935 C   0  0  0  0  0  0  0  0  0  0  0  0
    1.8931   -7.9265   16.2047 C   0  0  0  0  0  0  0  0  0  0  0  0
    2.4396   -9.0801   16.7132 C   0  0  0  0  0  0  0  0  0  0  0  0
   -0.2575   -8.6234   16.8582 C   0  0  0  0  0  0  0  0  0  0  0  0
    4.0614   -7.0367   27.0106 N   0  0  0  0  0  0  0  0  0  0  0  0
   -2.9133  -11.6279   18.7578 C   0  0  0  0  0  0  0  0  0  0  0  0
    4.5688  -10.1291   29.5758 C   0  0  0  0  0  0  0  0  0  0  0  0
    2.1008   -9.0410   29.1852 N   0  0  0  0  0  0  0  0  0  0  0  0
    3.4829  -10.5697   30.2091 N   0  0  0  0  0  0  0  0  0  0  0  0
   -0.3363   -6.1172   27.5628 C   0  0  0  0  0  0  0  0  0  0  0  0
    3.0331   -7.4400   27.6362 C   0  0  0  0  0  0  0  0  0  0  0  0
    5.4553   -8.5933   27.9644 C   0  0  0  0  0  0  0  0  0  0  0  0
   -2.3870  -12.8440   19.2512 C   0  0  0  0  0  0  0  0  0  0  0  0
    0.5331   -7.6964   16.2751 C   0  0  0  0  0  0  0  0  0  0  0  0
   -0.6740  -10.8737   18.0482 C   0  0  0  0  0  0  0  0  0  0  0  0
    5.6751  -10.5870   29.7637 O   0  0  0  0  0  0  0  0  0  0  0  0
    1.7612   -5.6483   26.7172 C   0  0  0  0  0  0  0  0  0  0  0  0
    0.2221   -9.8326   17.4055 C   0  0  0  0  0  0  0  0  0  0  0  0
    4.3850   -9.0730   28.6745 C   0  0  0  0  0  0  0  0  0  0  0  0
  1  7  4  0
  1 22  4  0
  2 17  4  0
  2 20  4  0
  2 28  4  0
  3  6  1  0
  3 19  1  0
  4 19  1  0
  4 26  1  0
  5 17  4  0
  5 18  4  0
  6 20  1  0
  6 26  1  0
  7 24  4  0
  8 15  4  0
  8 24  4  0
  9 14  4  0
  9 21  4  0
 10 12  4  0
 10 27  4  0
 11 12  4  0
 11 23  4  0
 13 23  4  0
 13 27  4  0
 14 20  4  0
 15 22  4  0
 16 18  4  0
 16 25  2  0
 16 28  4  0
 21 28  4  0
 24 27  1  0
M  END
$$$$

 Created by Python create_sdf_string function

 28 31  0  0  0  0  0  0  0  0999 V2000
   -1.0054  -13.0622   19.1198 C   0  0  0  0  0  0  0  0  0  0  0  0
    3.1478   -8.5360   28.5161 C   0  0  0  0  0  0  0  0  0  0  0  0
    0.5798   -7.1906   27.9330 C   0  0  0  0  0  0  0  0  0  0  0  0
    0.3978   -5.1561   26.6955 C   0  0  0  0  0  0  0  0  0  0  0  0
    2.3063  -10.0533   30.0125 C   0  0  0  0  0  0  0  0  0  0  0  0
    1.8591   -6.8254   27.4685 N   0  0  0  0  0  0  0  0  0  0  0  0
   -0.2167  -12.1055   18.5568 C   0  0  0  0  0  0  0  0  0  0  0  0
   -2.0661  -10.6994   18.1916 C   0  0  0  0  0  0  0  0  0  0  0  0
    5.2703   -7.5691   27.1123 C   0  0  0  0  0  0  0  0  0  0  0  0
    1.6204   -9.9887   17.2935 C   0  0  0  0  0  0  0  0  0  0  0  0
    1.8931   -7.9265   16.2047 C   0  0  0  0  0  0  0  0  0  0  0  0
    2.4396   -9.0801   16.7132 C   0  0  0  0  0  0  0  0  0  0  0  0
   -0.2575   -8.6234   16.8582 C   0  0  0  0  0  0  0  0  0  0  0  0
    4.0614   -7.0367   27.0106 N   0  0  0  0  0  0  0  0  0  0  0  0
   -2.9133  -11.6279   18.7578 C   0  0  0  0  0  0  0  0  0  0  0  0
    4.5688  -10.1291   29.5758 C   0  0  0  0  0  0  0  0  0  0  0  0
    2.1008   -9.0410   29.1852 N   0  0  0  0  0  0  0  0  0  0  0  0
    3.4829  -10.5697   30.2091 N   0  0  0  0  0  0  0  0  0  0  0  0
   -0.3363   -6.1172   27.5628 C   0  0  0  0  0  0  0  0  0  0  0  0
    3.0331   -7.4400   27.6362 C   0  0  0  0  0  0  0  0  0  0  0  0
    5.4553   -8.5933   27.9644 C   0  0  0  0  0  0  0  0  0  0  0  0
   -2.3870  -12.8440   19.2512 C   0  0  0  0  0  0  0  0  0  0  0  0
    0.5331   -7.6964   16.2751 C   0  0  0  0  0  0  0  0  0  0  0  0
   -0.6740  -10.8737   18.0482 C   0  0  0  0  0  0  0  0  0  0  0  0
    5.6751  -10.5870   29.7637 O   0  0  0  0  0  0  0  0  0  0  0  0
    1.7612   -5.6483   26.7172 C   0  0  0  0  0  0  0  0  0  0  0  0
    0.2221   -9.8326   17.4055 C   0  0  0  0  0  0  0  0  0  0  0  0
    4.3850   -9.0730   28.6745 C   0  0  0  0  0  0  0  0  0  0  0  0
  1  7  4  0
  1 22  4  0
  2 17  4  0
  2 20  4  0
  2 28  4  0
  3  6  1  0
  3 19  1  0
  4 19  1  0
  4 26  1  0
  5 17  4  0
  5 18  4  0
  6 20  1  0
  6 26  1  0
  7 24  4  0
  8 15  4  0
  8 24  4  0
  9 14  4  0
  9 21  4  0
 10 12  4  0
 10 27  4  0
 11 12  4  0
 11 23  4  0
 13 23  4  0
 13 27  4  0
 14 20  4  0
 15 22  4  0
 16 18  4  0
 16 25  2  0
 16 28  4  0
 21 28  4  0
 24 27  1  0
M  END
$$$$

 Created by Python create_sdf_string function

 28 31  0  0  0  0  0  0  0  0999 V2000
   -1.0054  -13.0622   19.1198 C   0  0  0  0  0  0  0  0  0  0  0  0
    3.1478   -8.5360   28.5161 C   0  0  0  0  0  0  0  0  0  0  0  0
    0.5798   -7.1906   27.9330 C   0  0  0  0  0  0  0  0  0  0  0  0
    0.3978   -5.1561   26.6955 C   0  0  0  0  0  0  0  0  0  0  0  0
    2.3063  -10.0533   30.0125 C   0  0  0  0  0  0  0  0  0  0  0  0
    1.8591   -6.8254   27.4685 N   0  0  0  0  0  0  0  0  0  0  0  0
   -0.2167  -12.1055   18.5568 C   0  0  0  0  0  0  0  0  0  0  0  0
   -2.0661  -10.6994   18.1916 C   0  0  0  0  0  0  0  0  0  0  0  0
    5.2703   -7.5691   27.1123 C   0  0  0  0  0  0  0  0  0  0  0  0
    1.6204   -9.9887   17.2935 C   0  0  0  0  0  0  0  0  0  0  0  0
    1.8931   -7.9265   16.2047 C   0  0  0  0  0  0  0  0  0  0  0  0
    2.4396   -9.0801   16.7132 C   0  0  0  0  0  0  0  0  0  0  0  0
   -0.2575   -8.6234   16.8582 C   0  0  0  0  0  0  0  0  0  0  0  0
    4.0614   -7.0367   27.0106 N   0  0  0  0  0  0  0  0  0  0  0  0
   -2.9133  -11.6279   18.7578 C   0  0  0  0  0  0  0  0  0  0  0  0
    4.5688  -10.1291   29.5758 C   0  0  0  0  0  0  0  0  0  0  0  0
    2.1008   -9.0410   29.1852 N   0  0  0  0  0  0  0  0  0  0  0  0
    3.4829  -10.5697   30.2091 N   0  0  0  0  0  0  0  0  0  0  0  0
   -0.3363   -6.1172   27.5628 C   0  0  0  0  0  0  0  0  0  0  0  0
    3.0331   -7.4400   27.6362 C   0  0  0  0  0  0  0  0  0  0  0  0
    5.4553   -8.5933   27.9644 C   0  0  0  0  0  0  0  0  0  0  0  0
   -2.3870  -12.8440   19.2512 C   0  0  0  0  0  0  0  0  0  0  0  0
    0.5331   -7.6964   16.2751 C   0  0  0  0  0  0  0  0  0  0  0  0
   -0.6740  -10.8737   18.0482 C   0  0  0  0  0  0  0  0  0  0  0  0
    5.6751  -10.5870   29.7637 O   0  0  0  0  0  0  0  0  0  0  0  0
    1.7612   -5.6483   26.7172 C   0  0  0  0  0  0  0  0  0  0  0  0
    0.2221   -9.8326   17.4055 C   0  0  0  0  0  0  0  0  0  0  0  0
    4.3850   -9.0730   28.6745 C   0  0  0  0  0  0  0  0  0  0  0  0
  1  7  4  0
  1 22  4  0
  2 17  4  0
  2 20  4  0
  2 28  4  0
  3  6  1  0
  3 19  1  0
  4 19  1  0
  4 26  1  0
  5 17  4  0
  5 18  4  0
  6 20  1  0
  6 26  1  0
  7 24  4  0
  8 15  4  0
  8 24  4  0
  9 14  4  0
  9 21  4  0
 10 12  4  0
 10 27  4  0
 11 12  4  0
 11 23  4  0
 13 23  4  0
 13 27  4  0
 14 20  4  0
 15 22  4  0
 16 18  4  0
 16 25  2  0
 16 28  4  0
 21 28  4  0
 24 27  1  0
M  END
$$$$

 Created by Python create_sdf_string function

 28 31  0  0  0  0  0  0  0  0999 V2000
   -1.0054  -13.0622   19.1198 C   0  0  0  0  0  0  0  0  0  0  0  0
    3.1478   -8.5360   28.5161 C   0  0  0  0  0  0  0  0  0  0  0  0
    0.5798   -7.1906   27.9330 C   0  0  0  0  0  0  0  0  0  0  0  0
    0.3978   -5.1561   26.6955 C   0  0  0  0  0  0  0  0  0  0  0  0
    2.3063  -10.0533   30.0125 C   0  0  0  0  0  0  0  0  0  0  0  0
    1.8591   -6.8254   27.4685 N   0  0  0  0  0  0  0  0  0  0  0  0
   -0.2167  -12.1055   18.5568 C   0  0  0  0  0  0  0  0  0  0  0  0
   -2.0661  -10.6994   18.1916 C   0  0  0  0  0  0  0  0  0  0  0  0
    5.2703   -7.5691   27.1123 C   0  0  0  0  0  0  0  0  0  0  0  0
    1.6204   -9.9887   17.2935 C   0  0  0  0  0  0  0  0  0  0  0  0
    1.8931   -7.9265   16.2047 C   0  0  0  0  0  0  0  0  0  0  0  0
    2.4396   -9.0801   16.7132 C   0  0  0  0  0  0  0  0  0  0  0  0
   -0.2575   -8.6234   16.8582 C   0  0  0  0  0  0  0  0  0  0  0  0
    4.0614   -7.0367   27.0106 N   0  0  0  0  0  0  0  0  0  0  0  0
   -2.9133  -11.6279   18.7578 C   0  0  0  0  0  0  0  0  0  0  0  0
    4.5688  -10.1291   29.5758 C   0  0  0  0  0  0  0  0  0  0  0  0
    2.1008   -9.0410   29.1852 N   0  0  0  0  0  0  0  0  0  0  0  0
    3.4829  -10.5697   30.2091 N   0  0  0  0  0  0  0  0  0  0  0  0
   -0.3363   -6.1172   27.5628 C   0  0  0  0  0  0  0  0  0  0  0  0
    3.0331   -7.4400   27.6362 C   0  0  0  0  0  0  0  0  0  0  0  0
    5.4553   -8.5933   27.9644 C   0  0  0  0  0  0  0  0  0  0  0  0
   -2.3870  -12.8440   19.2512 C   0  0  0  0  0  0  0  0  0  0  0  0
    0.5331   -7.6964   16.2751 C   0  0  0  0  0  0  0  0  0  0  0  0
   -0.6740  -10.8737   18.0482 C   0  0  0  0  0  0  0  0  0  0  0  0
    5.6751  -10.5870   29.7637 O   0  0  0  0  0  0  0  0  0  0  0  0
    1.7612   -5.6483   26.7172 C   0  0  0  0  0  0  0  0  0  0  0  0
    0.2221   -9.8326   17.4055 C   0  0  0  0  0  0  0  0  0  0  0  0
    4.3850   -9.0730   28.6745 C   0  0  0  0  0  0  0  0  0  0  0  0
  1  7  4  0
  1 22  4  0
  2 17  4  0
  2 20  4  0
  2 28  4  0
  3  6  1  0
  3 19  1  0
  4 19  1  0
  4 26  1  0
  5 17  4  0
  5 18  4  0
  6 20  1  0
  6 26  1  0
  7 24  4  0
  8 15  4  0
  8 24  4  0
  9 14  4  0
  9 21  4  0
 10 12  4  0
 10 27  4  0
 11 12  4  0
 11 23  4  0
 13 23  4  0
 13 27  4  0
 14 20  4  0
 15 22  4  0
 16 18  4  0
 16 25  2  0
 16 28  4  0
 21 28  4  0
 24 27  1  0
M  END
$$$$

 Created by Python create_sdf_string function

 28 31  0  0  0  0  0  0  0  0999 V2000
   -1.0054  -13.0622   19.1198 C   0  0  0  0  0  0  0  0  0  0  0  0
    3.1478   -8.5360   28.5161 C   0  0  0  0  0  0  0  0  0  0  0  0
    0.5798   -7.1906   27.9330 C   0  0  0  0  0  0  0  0  0  0  0  0
    0.3978   -5.1561   26.6955 C   0  0  0  0  0  0  0  0  0  0  0  0
    2.3063  -10.0533   30.0125 C   0  0  0  0  0  0  0  0  0  0  0  0
    1.8591   -6.8254   27.4685 N   0  0  0  0  0  0  0  0  0  0  0  0
   -0.2167  -12.1055   18.5568 C   0  0  0  0  0  0  0  0  0  0  0  0
   -2.0661  -10.6994   18.1916 C   0  0  0  0  0  0  0  0  0  0  0  0
    5.2703   -7.5691   27.1123 C   0  0  0  0  0  0  0  0  0  0  0  0
    1.6204   -9.9887   17.2935 C   0  0  0  0  0  0  0  0  0  0  0  0
    1.8931   -7.9265   16.2047 C   0  0  0  0  0  0  0  0  0  0  0  0
    2.4396   -9.0801   16.7132 C   0  0  0  0  0  0  0  0  0  0  0  0
   -0.2575   -8.6234   16.8582 C   0  0  0  0  0  0  0  0  0  0  0  0
    4.0614   -7.0367   27.0106 N   0  0  0  0  0  0  0  0  0  0  0  0
   -2.9133  -11.6279   18.7578 C   0  0  0  0  0  0  0  0  0  0  0  0
    4.5688  -10.1291   29.5758 C   0  0  0  0  0  0  0  0  0  0  0  0
    2.1008   -9.0410   29.1852 N   0  0  0  0  0  0  0  0  0  0  0  0
    3.4829  -10.5697   30.2091 N   0  0  0  0  0  0  0  0  0  0  0  0
   -0.3363   -6.1172   27.5628 C   0  0  0  0  0  0  0  0  0  0  0  0
    3.0331   -7.4400   27.6362 C   0  0  0  0  0  0  0  0  0  0  0  0
    5.4553   -8.5933   27.9644 C   0  0  0  0  0  0  0  0  0  0  0  0
   -2.3870  -12.8440   19.2512 C   0  0  0  0  0  0  0  0  0  0  0  0
    0.5331   -7.6964   16.2751 C   0  0  0  0  0  0  0  0  0  0  0  0
   -0.6740  -10.8737   18.0482 C   0  0  0  0  0  0  0  0  0  0  0  0
    5.6751  -10.5870   29.7637 O   0  0  0  0  0  0  0  0  0  0  0  0
    1.7612   -5.6483   26.7172 C   0  0  0  0  0  0  0  0  0  0  0  0
    0.2221   -9.8326   17.4055 C   0  0  0  0  0  0  0  0  0  0  0  0
    4.3850   -9.0730   28.6745 C   0  0  0  0  0  0  0  0  0  0  0  0
  1  7  4  0
  1 22  4  0
  2 17  4  0
  2 20  4  0
  2 28  4  0
  3  6  1  0
  3 19  1  0
  4 19  1  0
  4 26  1  0
  5 17  4  0
  5 18  4  0
  6 20  1  0
  6 26  1  0
  7 24  4  0
  8 15  4  0
  8 24  4  0
  9 14  4  0
  9 21  4  0
 10 12  4  0
 10 27  4  0
 11 12  4  0
 11 23  4  0
 13 23  4  0
 13 27  4  0
 14 20  4  0
 15 22  4  0
 16 18  4  0
 16 25  2  0
 16 28  4  0
 21 28  4  0
 24 27  1  0
M  END
$$$$

 Created by Python create_sdf_string function

 28 31  0  0  0  0  0  0  0  0999 V2000
   -1.0054  -13.0622   19.1198 C   0  0  0  0  0  0  0  0  0  0  0  0
    3.1478   -8.5360   28.5161 C   0  0  0  0  0  0  0  0  0  0  0  0
    0.5798   -7.1906   27.9330 C   0  0  0  0  0  0  0  0  0  0  0  0
    0.3978   -5.1561   26.6955 C   0  0  0  0  0  0  0  0  0  0  0  0
    2.3063  -10.0533   30.0125 C   0  0  0  0  0  0  0  0  0  0  0  0
    1.8591   -6.8254   27.4685 N   0  0  0  0  0  0  0  0  0  0  0  0
   -0.2167  -12.1055   18.5568 C   0  0  0  0  0  0  0  0  0  0  0  0
   -2.0661  -10.6994   18.1916 C   0  0  0  0  0  0  0  0  0  0  0  0
    5.2703   -7.5691   27.1123 C   0  0  0  0  0  0  0  0  0  0  0  0
    1.6204   -9.9887   17.2935 C   0  0  0  0  0  0  0  0  0  0  0  0
    1.8931   -7.9265   16.2047 C   0  0  0  0  0  0  0  0  0  0  0  0
    2.4396   -9.0801   16.7132 C   0  0  0  0  0  0  0  0  0  0  0  0
   -0.2575   -8.6234   16.8582 C   0  0  0  0  0  0  0  0  0  0  0  0
    4.0614   -7.0367   27.0106 N   0  0  0  0  0  0  0  0  0  0  0  0
   -2.9133  -11.6279   18.7578 C   0  0  0  0  0  0  0  0  0  0  0  0
    4.5688  -10.1291   29.5758 C   0  0  0  0  0  0  0  0  0  0  0  0
    2.1008   -9.0410   29.1852 N   0  0  0  0  0  0  0  0  0  0  0  0
    3.4829  -10.5697   30.2091 N   0  0  0  0  0  0  0  0  0  0  0  0
   -0.3363   -6.1172   27.5628 C   0  0  0  0  0  0  0  0  0  0  0  0
    3.0331   -7.4400   27.6362 C   0  0  0  0  0  0  0  0  0  0  0  0
    5.4553   -8.5933   27.9644 C   0  0  0  0  0  0  0  0  0  0  0  0
   -2.3870  -12.8440   19.2512 C   0  0  0  0  0  0  0  0  0  0  0  0
    0.5331   -7.6964   16.2751 C   0  0  0  0  0  0  0  0  0  0  0  0
   -0.6740  -10.8737   18.0482 C   0  0  0  0  0  0  0  0  0  0  0  0
    5.6751  -10.5870   29.7637 O   0  0  0  0  0  0  0  0  0  0  0  0
    1.7612   -5.6483   26.7172 C   0  0  0  0  0  0  0  0  0  0  0  0
    0.2221   -9.8326   17.4055 C   0  0  0  0  0  0  0  0  0  0  0  0
    4.3850   -9.0730   28.6745 C   0  0  0  0  0  0  0  0  0  0  0  0
  1  7  4  0
  1 22  4  0
  2 17  4  0
  2 20  4  0
  2 28  4  0
  3  6  1  0
  3 19  1  0
  4 19  1  0
  4 26  1  0
  5 17  4  0
  5 18  4  0
  6 20  1  0
  6 26  1  0
  7 24  4  0
  8 15  4  0
  8 24  4  0
  9 14  4  0
  9 21  4  0
 10 12  4  0
 10 27  4  0
 11 12  4  0
 11 23  4  0
 13 23  4  0
 13 27  4  0
 14 20  4  0
 15 22  4  0
 16 18  4  0
 16 25  2  0
 16 28  4  0
 21 28  4  0
 24 27  1  0
M  END
$$$$

 Created by Python create_sdf_string function

 28 31  0  0  0  0  0  0  0  0999 V2000
   -1.0054  -13.0622   19.1198 C   0  0  0  0  0  0  0  0  0  0  0  0
    3.1478   -8.5360   28.5161 C   0  0  0  0  0  0  0  0  0  0  0  0
    0.5798   -7.1906   27.9330 C   0  0  0  0  0  0  0  0  0  0  0  0
    0.3978   -5.1561   26.6955 C   0  0  0  0  0  0  0  0  0  0  0  0
    2.3063  -10.0533   30.0125 C   0  0  0  0  0  0  0  0  0  0  0  0
    1.8591   -6.8254   27.4685 N   0  0  0  0  0  0  0  0  0  0  0  0
   -0.2167  -12.1055   18.5568 C   0  0  0  0  0  0  0  0  0  0  0  0
   -2.0661  -10.6994   18.1916 C   0  0  0  0  0  0  0  0  0  0  0  0
    5.2703   -7.5691   27.1123 C   0  0  0  0  0  0  0  0  0  0  0  0
    1.6204   -9.9887   17.2935 C   0  0  0  0  0  0  0  0  0  0  0  0
    1.8931   -7.9265   16.2047 C   0  0  0  0  0  0  0  0  0  0  0  0
    2.4396   -9.0801   16.7132 C   0  0  0  0  0  0  0  0  0  0  0  0
   -0.2575   -8.6234   16.8582 C   0  0  0  0  0  0  0  0  0  0  0  0
    4.0614   -7.0367   27.0106 N   0  0  0  0  0  0  0  0  0  0  0  0
   -2.9133  -11.6279   18.7578 C   0  0  0  0  0  0  0  0  0  0  0  0
    4.5688  -10.1291   29.5758 C   0  0  0  0  0  0  0  0  0  0  0  0
    2.1008   -9.0410   29.1852 N   0  0  0  0  0  0  0  0  0  0  0  0
    3.4829  -10.5697   30.2091 N   0  0  0  0  0  0  0  0  0  0  0  0
   -0.3363   -6.1172   27.5628 C   0  0  0  0  0  0  0  0  0  0  0  0
    3.0331   -7.4400   27.6362 C   0  0  0  0  0  0  0  0  0  0  0  0
    5.4553   -8.5933   27.9644 C   0  0  0  0  0  0  0  0  0  0  0  0
   -2.3870  -12.8440   19.2512 C   0  0  0  0  0  0  0  0  0  0  0  0
    0.5331   -7.6964   16.2751 C   0  0  0  0  0  0  0  0  0  0  0  0
   -0.6740  -10.8737   18.0482 C   0  0  0  0  0  0  0  0  0  0  0  0
    5.6751  -10.5870   29.7637 O   0  0  0  0  0  0  0  0  0  0  0  0
    1.7612   -5.6483   26.7172 C   0  0  0  0  0  0  0  0  0  0  0  0
    0.2221   -9.8326   17.4055 C   0  0  0  0  0  0  0  0  0  0  0  0
    4.3850   -9.0730   28.6745 C   0  0  0  0  0  0  0  0  0  0  0  0
  1  7  4  0
  1 22  4  0
  2 17  4  0
  2 20  4  0
  2 28  4  0
  3  6  1  0
  3 19  1  0
  4 19  1  0
  4 26  1  0
  5 17  4  0
  5 18  4  0
  6 20  1  0
  6 26  1  0
  7 24  4  0
  8 15  4  0
  8 24  4  0
  9 14  4  0
  9 21  4  0
 10 12  4  0
 10 27  4  0
 11 12  4  0
 11 23  4  0
 13 23  4  0
 13 27  4  0
 14 20  4  0
 15 22  4  0
 16 18  4  0
 16 25  2  0
 16 28  4  0
 21 28  4  0
 24 27  1  0
M  END
$$$$

 Created by Python create_sdf_string function

 28 31  0  0  0  0  0  0  0  0999 V2000
   -1.0054  -13.0622   19.1198 C   0  0  0  0  0  0  0  0  0  0  0  0
    3.1478   -8.5360   28.5161 C   0  0  0  0  0  0  0  0  0  0  0  0
    0.5798   -7.1906   27.9330 C   0  0  0  0  0  0  0  0  0  0  0  0
    0.3978   -5.1561   26.6955 C   0  0  0  0  0  0  0  0  0  0  0  0
    2.3063  -10.0533   30.0125 C   0  0  0  0  0  0  0  0  0  0  0  0
    1.8591   -6.8254   27.4685 N   0  0  0  0  0  0  0  0  0  0  0  0
   -0.2167  -12.1055   18.5568 C   0  0  0  0  0  0  0  0  0  0  0  0
   -2.0661  -10.6994   18.1916 C   0  0  0  0  0  0  0  0  0  0  0  0
    5.2703   -7.5691   27.1123 C   0  0  0  0  0  0  0  0  0  0  0  0
    1.6204   -9.9887   17.2935 C   0  0  0  0  0  0  0  0  0  0  0  0
    1.8931   -7.9265   16.2047 C   0  0  0  0  0  0  0  0  0  0  0  0
    2.4396   -9.0801   16.7132 C   0  0  0  0  0  0  0  0  0  0  0  0
   -0.2575   -8.6234   16.8582 C   0  0  0  0  0  0  0  0  0  0  0  0
    4.0614   -7.0367   27.0106 N   0  0  0  0  0  0  0  0  0  0  0  0
   -2.9133  -11.6279   18.7578 C   0  0  0  0  0  0  0  0  0  0  0  0
    4.5688  -10.1291   29.5758 C   0  0  0  0  0  0  0  0  0  0  0  0
    2.1008   -9.0410   29.1852 N   0  0  0  0  0  0  0  0  0  0  0  0
    3.4829  -10.5697   30.2091 N   0  0  0  0  0  0  0  0  0  0  0  0
   -0.3363   -6.1172   27.5628 C   0  0  0  0  0  0  0  0  0  0  0  0
    3.0331   -7.4400   27.6362 C   0  0  0  0  0  0  0  0  0  0  0  0
    5.4553   -8.5933   27.9644 C   0  0  0  0  0  0  0  0  0  0  0  0
   -2.3870  -12.8440   19.2512 C   0  0  0  0  0  0  0  0  0  0  0  0
    0.5331   -7.6964   16.2751 C   0  0  0  0  0  0  0  0  0  0  0  0
   -0.6740  -10.8737   18.0482 C   0  0  0  0  0  0  0  0  0  0  0  0
    5.6751  -10.5870   29.7637 O   0  0  0  0  0  0  0  0  0  0  0  0
    1.7612   -5.6483   26.7172 C   0  0  0  0  0  0  0  0  0  0  0  0
    0.2221   -9.8326   17.4055 C   0  0  0  0  0  0  0  0  0  0  0  0
    4.3850   -9.0730   28.6745 C   0  0  0  0  0  0  0  0  0  0  0  0
  1  7  4  0
  1 22  4  0
  2 17  4  0
  2 20  4  0
  2 28  4  0
  3  6  1  0
  3 19  1  0
  4 19  1  0
  4 26  1  0
  5 17  4  0
  5 18  4  0
  6 20  1  0
  6 26  1  0
  7 24  4  0
  8 15  4  0
  8 24  4  0
  9 14  4  0
  9 21  4  0
 10 12  4  0
 10 27  4  0
 11 12  4  0
 11 23  4  0
 13 23  4  0
 13 27  4  0
 14 20  4  0
 15 22  4  0
 16 18  4  0
 16 25  2  0
 16 28  4  0
 21 28  4  0
 24 27  1  0
M  END
$$$$

 Created by Python create_sdf_string function

 28 31  0  0  0  0  0  0  0  0999 V2000
   -1.0054  -13.0622   19.1198 C   0  0  0  0  0  0  0  0  0  0  0  0
    3.1478   -8.5360   28.5161 C   0  0  0  0  0  0  0  0  0  0  0  0
    0.5798   -7.1906   27.9330 C   0  0  0  0  0  0  0  0  0  0  0  0
    0.3978   -5.1561   26.6955 C   0  0  0  0  0  0  0  0  0  0  0  0
    2.3063  -10.0533   30.0125 C   0  0  0  0  0  0  0  0  0  0  0  0
    1.8591   -6.8254   27.4685 N   0  0  0  0  0  0  0  0  0  0  0  0
   -0.2167  -12.1055   18.5568 C   0  0  0  0  0  0  0  0  0  0  0  0
   -2.0661  -10.6994   18.1916 C   0  0  0  0  0  0  0  0  0  0  0  0
    5.2703   -7.5691   27.1123 C   0  0  0  0  0  0  0  0  0  0  0  0
    1.6204   -9.9887   17.2935 C   0  0  0  0  0  0  0  0  0  0  0  0
    1.8931   -7.9265   16.2047 C   0  0  0  0  0  0  0  0  0  0  0  0
    2.4396   -9.0801   16.7132 C   0  0  0  0  0  0  0  0  0  0  0  0
   -0.2575   -8.6234   16.8582 C   0  0  0  0  0  0  0  0  0  0  0  0
    4.0614   -7.0367   27.0106 N   0  0  0  0  0  0  0  0  0  0  0  0
   -2.9133  -11.6279   18.7578 C   0  0  0  0  0  0  0  0  0  0  0  0
    4.5688  -10.1291   29.5758 C   0  0  0  0  0  0  0  0  0  0  0  0
    2.1008   -9.0410   29.1852 N   0  0  0  0  0  0  0  0  0  0  0  0
    3.4829  -10.5697   30.2091 N   0  0  0  0  0  0  0  0  0  0  0  0
   -0.3363   -6.1172   27.5628 C   0  0  0  0  0  0  0  0  0  0  0  0
    3.0331   -7.4400   27.6362 C   0  0  0  0  0  0  0  0  0  0  0  0
    5.4553   -8.5933   27.9644 C   0  0  0  0  0  0  0  0  0  0  0  0
   -2.3870  -12.8440   19.2512 C   0  0  0  0  0  0  0  0  0  0  0  0
    0.5331   -7.6964   16.2751 C   0  0  0  0  0  0  0  0  0  0  0  0
   -0.6740  -10.8737   18.0482 C   0  0  0  0  0  0  0  0  0  0  0  0
    5.6751  -10.5870   29.7637 O   0  0  0  0  0  0  0  0  0  0  0  0
    1.7612   -5.6483   26.7172 C   0  0  0  0  0  0  0  0  0  0  0  0
    0.2221   -9.8326   17.4055 C   0  0  0  0  0  0  0  0  0  0  0  0
    4.3850   -9.0730   28.6745 C   0  0  0  0  0  0  0  0  0  0  0  0
  1  7  4  0
  1 22  4  0
  2 17  4  0
  2 20  4  0
  2 28  4  0
  3  6  1  0
  3 19  1  0
  4 19  1  0
  4 26  1  0
  5 17  4  0
  5 18  4  0
  6 20  1  0
  6 26  1  0
  7 24  4  0
  8 15  4  0
  8 24  4  0
  9 14  4  0
  9 21  4  0
 10 12  4  0
 10 27  4  0
 11 12  4  0
 11 23  4  0
 13 23  4  0
 13 27  4  0
 14 20  4  0
 15 22  4  0
 16 18  4  0
 16 25  2  0
 16 28  4  0
 21 28  4  0
 24 27  1  0
M  END
$$$$

 Created by Python create_sdf_string function

 28 31  0  0  0  0  0  0  0  0999 V2000
   -1.0054  -13.0622   19.1198 C   0  0  0  0  0  0  0  0  0  0  0  0
    3.1478   -8.5360   28.5161 C   0  0  0  0  0  0  0  0  0  0  0  0
    0.5798   -7.1906   27.9330 C   0  0  0  0  0  0  0  0  0  0  0  0
    0.3978   -5.1561   26.6955 C   0  0  0  0  0  0  0  0  0  0  0  0
    2.3063  -10.0533   30.0125 C   0  0  0  0  0  0  0  0  0  0  0  0
    1.8591   -6.8254   27.4685 N   0  0  0  0  0  0  0  0  0  0  0  0
   -0.2167  -12.1055   18.5568 C   0  0  0  0  0  0  0  0  0  0  0  0
   -2.0661  -10.6994   18.1916 C   0  0  0  0  0  0  0  0  0  0  0  0
    5.2703   -7.5691   27.1123 C   0  0  0  0  0  0  0  0  0  0  0  0
    1.6204   -9.9887   17.2935 C   0  0  0  0  0  0  0  0  0  0  0  0
    1.8931   -7.9265   16.2047 C   0  0  0  0  0  0  0  0  0  0  0  0
    2.4396   -9.0801   16.7132 C   0  0  0  0  0  0  0  0  0  0  0  0
   -0.2575   -8.6234   16.8582 C   0  0  0  0  0  0  0  0  0  0  0  0
    4.0614   -7.0367   27.0106 N   0  0  0  0  0  0  0  0  0  0  0  0
   -2.9133  -11.6279   18.7578 C   0  0  0  0  0  0  0  0  0  0  0  0
    4.5688  -10.1291   29.5758 C   0  0  0  0  0  0  0  0  0  0  0  0
    2.1008   -9.0410   29.1852 N   0  0  0  0  0  0  0  0  0  0  0  0
    3.4829  -10.5697   30.2091 N   0  0  0  0  0  0  0  0  0  0  0  0
   -0.3363   -6.1172   27.5628 C   0  0  0  0  0  0  0  0  0  0  0  0
    3.0331   -7.4400   27.6362 C   0  0  0  0  0  0  0  0  0  0  0  0
    5.4553   -8.5933   27.9644 C   0  0  0  0  0  0  0  0  0  0  0  0
   -2.3870  -12.8440   19.2512 C   0  0  0  0  0  0  0  0  0  0  0  0
    0.5331   -7.6964   16.2751 C   0  0  0  0  0  0  0  0  0  0  0  0
   -0.6740  -10.8737   18.0482 C   0  0  0  0  0  0  0  0  0  0  0  0
    5.6751  -10.5870   29.7637 O   0  0  0  0  0  0  0  0  0  0  0  0
    1.7612   -5.6483   26.7172 C   0  0  0  0  0  0  0  0  0  0  0  0
    0.2221   -9.8326   17.4055 C   0  0  0  0  0  0  0  0  0  0  0  0
    4.3850   -9.0730   28.6745 C   0  0  0  0  0  0  0  0  0  0  0  0
  1  7  4  0
  1 22  4  0
  2 17  4  0
  2 20  4  0
  2 28  4  0
  3  6  1  0
  3 19  1  0
  4 19  1  0
  4 26  1  0
  5 17  4  0
  5 18  4  0
  6 20  1  0
  6 26  1  0
  7 24  4  0
  8 15  4  0
  8 24  4  0
  9 14  4  0
  9 21  4  0
 10 12  4  0
 10 27  4  0
 11 12  4  0
 11 23  4  0
 13 23  4  0
 13 27  4  0
 14 20  4  0
 15 22  4  0
 16 18  4  0
 16 25  2  0
 16 28  4  0
 21 28  4  0
 24 27  1  0
M  END
$$$$

 Created by Python create_sdf_string function

 28 31  0  0  0  0  0  0  0  0999 V2000
   -1.0054  -13.0622   19.1198 C   0  0  0  0  0  0  0  0  0  0  0  0
    3.1478   -8.5360   28.5161 C   0  0  0  0  0  0  0  0  0  0  0  0
    0.5798   -7.1906   27.9330 C   0  0  0  0  0  0  0  0  0  0  0  0
    0.3978   -5.1561   26.6955 C   0  0  0  0  0  0  0  0  0  0  0  0
    2.3063  -10.0533   30.0125 C   0  0  0  0  0  0  0  0  0  0  0  0
    1.8591   -6.8254   27.4685 N   0  0  0  0  0  0  0  0  0  0  0  0
   -0.2167  -12.1055   18.5568 C   0  0  0  0  0  0  0  0  0  0  0  0
   -2.0661  -10.6994   18.1916 C   0  0  0  0  0  0  0  0  0  0  0  0
    5.2703   -7.5691   27.1123 C   0  0  0  0  0  0  0  0  0  0  0  0
    1.6204   -9.9887   17.2935 C   0  0  0  0  0  0  0  0  0  0  0  0
    1.8931   -7.9265   16.2047 C   0  0  0  0  0  0  0  0  0  0  0  0
    2.4396   -9.0801   16.7132 C   0  0  0  0  0  0  0  0  0  0  0  0
   -0.2575   -8.6234   16.8582 C   0  0  0  0  0  0  0  0  0  0  0  0
    4.0614   -7.0367   27.0106 N   0  0  0  0  0  0  0  0  0  0  0  0
   -2.9133  -11.6279   18.7578 C   0  0  0  0  0  0  0  0  0  0  0  0
    4.5688  -10.1291   29.5758 C   0  0  0  0  0  0  0  0  0  0  0  0
    2.1008   -9.0410   29.1852 N   0  0  0  0  0  0  0  0  0  0  0  0
    3.4829  -10.5697   30.2091 N   0  0  0  0  0  0  0  0  0  0  0  0
   -0.3363   -6.1172   27.5628 C   0  0  0  0  0  0  0  0  0  0  0  0
    3.0331   -7.4400   27.6362 C   0  0  0  0  0  0  0  0  0  0  0  0
    5.4553   -8.5933   27.9644 C   0  0  0  0  0  0  0  0  0  0  0  0
   -2.3870  -12.8440   19.2512 C   0  0  0  0  0  0  0  0  0  0  0  0
    0.5331   -7.6964   16.2751 C   0  0  0  0  0  0  0  0  0  0  0  0
   -0.6740  -10.8737   18.0482 C   0  0  0  0  0  0  0  0  0  0  0  0
    5.6751  -10.5870   29.7637 O   0  0  0  0  0  0  0  0  0  0  0  0
    1.7612   -5.6483   26.7172 C   0  0  0  0  0  0  0  0  0  0  0  0
    0.2221   -9.8326   17.4055 C   0  0  0  0  0  0  0  0  0  0  0  0
    4.3850   -9.0730   28.6745 C   0  0  0  0  0  0  0  0  0  0  0  0
  1  7  4  0
  1 22  4  0
  2 17  4  0
  2 20  4  0
  2 28  4  0
  3  6  1  0
  3 19  1  0
  4 19  1  0
  4 26  1  0
  5 17  4  0
  5 18  4  0
  6 20  1  0
  6 26  1  0
  7 24  4  0
  8 15  4  0
  8 24  4  0
  9 14  4  0
  9 21  4  0
 10 12  4  0
 10 27  4  0
 11 12  4  0
 11 23  4  0
 13 23  4  0
 13 27  4  0
 14 20  4  0
 15 22  4  0
 16 18  4  0
 16 25  2  0
 16 28  4  0
 21 28  4  0
 24 27  1  0
M  END
$$$$

 Created by Python create_sdf_string function

 28 31  0  0  0  0  0  0  0  0999 V2000
   -1.0054  -13.0622   19.1198 C   0  0  0  0  0  0  0  0  0  0  0  0
    3.1478   -8.5360   28.5161 C   0  0  0  0  0  0  0  0  0  0  0  0
    0.5798   -7.1906   27.9330 C   0  0  0  0  0  0  0  0  0  0  0  0
    0.3978   -5.1561   26.6955 C   0  0  0  0  0  0  0  0  0  0  0  0
    2.3063  -10.0533   30.0125 C   0  0  0  0  0  0  0  0  0  0  0  0
    1.8591   -6.8254   27.4685 N   0  0  0  0  0  0  0  0  0  0  0  0
   -0.2167  -12.1055   18.5568 C   0  0  0  0  0  0  0  0  0  0  0  0
   -2.0661  -10.6994   18.1916 C   0  0  0  0  0  0  0  0  0  0  0  0
    5.2703   -7.5691   27.1123 C   0  0  0  0  0  0  0  0  0  0  0  0
    1.6204   -9.9887   17.2935 C   0  0  0  0  0  0  0  0  0  0  0  0
    1.8931   -7.9265   16.2047 C   0  0  0  0  0  0  0  0  0  0  0  0
    2.4396   -9.0801   16.7132 C   0  0  0  0  0  0  0  0  0  0  0  0
   -0.2575   -8.6234   16.8582 C   0  0  0  0  0  0  0  0  0  0  0  0
    4.0614   -7.0367   27.0106 N   0  0  0  0  0  0  0  0  0  0  0  0
   -2.9133  -11.6279   18.7578 C   0  0  0  0  0  0  0  0  0  0  0  0
    4.5688  -10.1291   29.5758 C   0  0  0  0  0  0  0  0  0  0  0  0
    2.1008   -9.0410   29.1852 N   0  0  0  0  0  0  0  0  0  0  0  0
    3.4829  -10.5697   30.2091 N   0  0  0  0  0  0  0  0  0  0  0  0
   -0.3363   -6.1172   27.5628 C   0  0  0  0  0  0  0  0  0  0  0  0
    3.0331   -7.4400   27.6362 C   0  0  0  0  0  0  0  0  0  0  0  0
    5.4553   -8.5933   27.9644 C   0  0  0  0  0  0  0  0  0  0  0  0
   -2.3870  -12.8440   19.2512 C   0  0  0  0  0  0  0  0  0  0  0  0
    0.5331   -7.6964   16.2751 C   0  0  0  0  0  0  0  0  0  0  0  0
   -0.6740  -10.8737   18.0482 C   0  0  0  0  0  0  0  0  0  0  0  0
    5.6751  -10.5870   29.7637 O   0  0  0  0  0  0  0  0  0  0  0  0
    1.7612   -5.6483   26.7172 C   0  0  0  0  0  0  0  0  0  0  0  0
    0.2221   -9.8326   17.4055 C   0  0  0  0  0  0  0  0  0  0  0  0
    4.3850   -9.0730   28.6745 C   0  0  0  0  0  0  0  0  0  0  0  0
  1  7  4  0
  1 22  4  0
  2 17  4  0
  2 20  4  0
  2 28  4  0
  3  6  1  0
  3 19  1  0
  4 19  1  0
  4 26  1  0
  5 17  4  0
  5 18  4  0
  6 20  1  0
  6 26  1  0
  7 24  4  0
  8 15  4  0
  8 24  4  0
  9 14  4  0
  9 21  4  0
 10 12  4  0
 10 27  4  0
 11 12  4  0
 11 23  4  0
 13 23  4  0
 13 27  4  0
 14 20  4  0
 15 22  4  0
 16 18  4  0
 16 25  2  0
 16 28  4  0
 21 28  4  0
 24 27  1  0
M  END
$$$$

 Created by Python create_sdf_string function

 28 31  0  0  0  0  0  0  0  0999 V2000
   -1.0054  -13.0622   19.1198 C   0  0  0  0  0  0  0  0  0  0  0  0
    3.1478   -8.5360   28.5161 C   0  0  0  0  0  0  0  0  0  0  0  0
    0.5798   -7.1906   27.9330 C   0  0  0  0  0  0  0  0  0  0  0  0
    0.3978   -5.1561   26.6955 C   0  0  0  0  0  0  0  0  0  0  0  0
    2.3063  -10.0533   30.0125 C   0  0  0  0  0  0  0  0  0  0  0  0
    1.8591   -6.8254   27.4685 N   0  0  0  0  0  0  0  0  0  0  0  0
   -0.2167  -12.1055   18.5568 C   0  0  0  0  0  0  0  0  0  0  0  0
   -2.0661  -10.6994   18.1916 C   0  0  0  0  0  0  0  0  0  0  0  0
    5.2703   -7.5691   27.1123 C   0  0  0  0  0  0  0  0  0  0  0  0
    1.6204   -9.9887   17.2935 C   0  0  0  0  0  0  0  0  0  0  0  0
    1.8931   -7.9265   16.2047 C   0  0  0  0  0  0  0  0  0  0  0  0
    2.4396   -9.0801   16.7132 C   0  0  0  0  0  0  0  0  0  0  0  0
   -0.2575   -8.6234   16.8582 C   0  0  0  0  0  0  0  0  0  0  0  0
    4.0614   -7.0367   27.0106 N   0  0  0  0  0  0  0  0  0  0  0  0
   -2.9133  -11.6279   18.7578 C   0  0  0  0  0  0  0  0  0  0  0  0
    4.5688  -10.1291   29.5758 C   0  0  0  0  0  0  0  0  0  0  0  0
    2.1008   -9.0410   29.1852 N   0  0  0  0  0  0  0  0  0  0  0  0
    3.4829  -10.5697   30.2091 N   0  0  0  0  0  0  0  0  0  0  0  0
   -0.3363   -6.1172   27.5628 C   0  0  0  0  0  0  0  0  0  0  0  0
    3.0331   -7.4400   27.6362 C   0  0  0  0  0  0  0  0  0  0  0  0
    5.4553   -8.5933   27.9644 C   0  0  0  0  0  0  0  0  0  0  0  0
   -2.3870  -12.8440   19.2512 C   0  0  0  0  0  0  0  0  0  0  0  0
    0.5331   -7.6964   16.2751 C   0  0  0  0  0  0  0  0  0  0  0  0
   -0.6740  -10.8737   18.0482 C   0  0  0  0  0  0  0  0  0  0  0  0
    5.6751  -10.5870   29.7637 O   0  0  0  0  0  0  0  0  0  0  0  0
    1.7612   -5.6483   26.7172 C   0  0  0  0  0  0  0  0  0  0  0  0
    0.2221   -9.8326   17.4055 C   0  0  0  0  0  0  0  0  0  0  0  0
    4.3850   -9.0730   28.6745 C   0  0  0  0  0  0  0  0  0  0  0  0
  1  7  4  0
  1 22  4  0
  2 17  4  0
  2 20  4  0
  2 28  4  0
  3  6  1  0
  3 19  1  0
  4 19  1  0
  4 26  1  0
  5 17  4  0
  5 18  4  0
  6 20  1  0
  6 26  1  0
  7 24  4  0
  8 15  4  0
  8 24  4  0
  9 14  4  0
  9 21  4  0
 10 12  4  0
 10 27  4  0
 11 12  4  0
 11 23  4  0
 13 23  4  0
 13 27  4  0
 14 20  4  0
 15 22  4  0
 16 18  4  0
 16 25  2  0
 16 28  4  0
 21 28  4  0
 24 27  1  0
M  END
$$$$

 Created by Python create_sdf_string function

 28 31  0  0  0  0  0  0  0  0999 V2000
   -1.0054  -13.0622   19.1198 C   0  0  0  0  0  0  0  0  0  0  0  0
    3.1478   -8.5360   28.5161 C   0  0  0  0  0  0  0  0  0  0  0  0
    0.5798   -7.1906   27.9330 C   0  0  0  0  0  0  0  0  0  0  0  0
    0.3978   -5.1561   26.6955 C   0  0  0  0  0  0  0  0  0  0  0  0
    2.3063  -10.0533   30.0125 C   0  0  0  0  0  0  0  0  0  0  0  0
    1.8591   -6.8254   27.4685 N   0  0  0  0  0  0  0  0  0  0  0  0
   -0.2167  -12.1055   18.5568 C   0  0  0  0  0  0  0  0  0  0  0  0
   -2.0661  -10.6994   18.1916 C   0  0  0  0  0  0  0  0  0  0  0  0
    5.2703   -7.5691   27.1123 C   0  0  0  0  0  0  0  0  0  0  0  0
    1.6204   -9.9887   17.2935 C   0  0  0  0  0  0  0  0  0  0  0  0
    1.8931   -7.9265   16.2047 C   0  0  0  0  0  0  0  0  0  0  0  0
    2.4396   -9.0801   16.7132 C   0  0  0  0  0  0  0  0  0  0  0  0
   -0.2575   -8.6234   16.8582 C   0  0  0  0  0  0  0  0  0  0  0  0
    4.0614   -7.0367   27.0106 N   0  0  0  0  0  0  0  0  0  0  0  0
   -2.9133  -11.6279   18.7578 C   0  0  0  0  0  0  0  0  0  0  0  0
    4.5688  -10.1291   29.5758 C   0  0  0  0  0  0  0  0  0  0  0  0
    2.1008   -9.0410   29.1852 N   0  0  0  0  0  0  0  0  0  0  0  0
    3.4829  -10.5697   30.2091 N   0  0  0  0  0  0  0  0  0  0  0  0
   -0.3363   -6.1172   27.5628 C   0  0  0  0  0  0  0  0  0  0  0  0
    3.0331   -7.4400   27.6362 C   0  0  0  0  0  0  0  0  0  0  0  0
    5.4553   -8.5933   27.9644 C   0  0  0  0  0  0  0  0  0  0  0  0
   -2.3870  -12.8440   19.2512 C   0  0  0  0  0  0  0  0  0  0  0  0
    0.5331   -7.6964   16.2751 C   0  0  0  0  0  0  0  0  0  0  0  0
   -0.6740  -10.8737   18.0482 C   0  0  0  0  0  0  0  0  0  0  0  0
    5.6751  -10.5870   29.7637 O   0  0  0  0  0  0  0  0  0  0  0  0
    1.7612   -5.6483   26.7172 C   0  0  0  0  0  0  0  0  0  0  0  0
    0.2221   -9.8326   17.4055 C   0  0  0  0  0  0  0  0  0  0  0  0
    4.3850   -9.0730   28.6745 C   0  0  0  0  0  0  0  0  0  0  0  0
  1  7  4  0
  1 22  4  0
  2 17  4  0
  2 20  4  0
  2 28  4  0
  3  6  1  0
  3 19  1  0
  4 19  1  0
  4 26  1  0
  5 17  4  0
  5 18  4  0
  6 20  1  0
  6 26  1  0
  7 24  4  0
  8 15  4  0
  8 24  4  0
  9 14  4  0
  9 21  4  0
 10 12  4  0
 10 27  4  0
 11 12  4  0
 11 23  4  0
 13 23  4  0
 13 27  4  0
 14 20  4  0
 15 22  4  0
 16 18  4  0
 16 25  2  0
 16 28  4  0
 21 28  4  0
 24 27  1  0
M  END
$$$$

 Created by Python create_sdf_string function

 28 31  0  0  0  0  0  0  0  0999 V2000
   -1.0054  -13.0622   19.1198 C   0  0  0  0  0  0  0  0  0  0  0  0
    3.1478   -8.5360   28.5161 C   0  0  0  0  0  0  0  0  0  0  0  0
    0.5798   -7.1906   27.9330 C   0  0  0  0  0  0  0  0  0  0  0  0
    0.3978   -5.1561   26.6955 C   0  0  0  0  0  0  0  0  0  0  0  0
    2.3063  -10.0533   30.0125 C   0  0  0  0  0  0  0  0  0  0  0  0
    1.8591   -6.8254   27.4685 N   0  0  0  0  0  0  0  0  0  0  0  0
   -0.2167  -12.1055   18.5568 C   0  0  0  0  0  0  0  0  0  0  0  0
   -2.0661  -10.6994   18.1916 C   0  0  0  0  0  0  0  0  0  0  0  0
    5.2703   -7.5691   27.1123 C   0  0  0  0  0  0  0  0  0  0  0  0
    1.6204   -9.9887   17.2935 C   0  0  0  0  0  0  0  0  0  0  0  0
    1.8931   -7.9265   16.2047 C   0  0  0  0  0  0  0  0  0  0  0  0
    2.4396   -9.0801   16.7132 C   0  0  0  0  0  0  0  0  0  0  0  0
   -0.2575   -8.6234   16.8582 C   0  0  0  0  0  0  0  0  0  0  0  0
    4.0614   -7.0367   27.0106 N   0  0  0  0  0  0  0  0  0  0  0  0
   -2.9133  -11.6279   18.7578 C   0  0  0  0  0  0  0  0  0  0  0  0
    4.5688  -10.1291   29.5758 C   0  0  0  0  0  0  0  0  0  0  0  0
    2.1008   -9.0410   29.1852 N   0  0  0  0  0  0  0  0  0  0  0  0
    3.4829  -10.5697   30.2091 N   0  0  0  0  0  0  0  0  0  0  0  0
   -0.3363   -6.1172   27.5628 C   0  0  0  0  0  0  0  0  0  0  0  0
    3.0331   -7.4400   27.6362 C   0  0  0  0  0  0  0  0  0  0  0  0
    5.4553   -8.5933   27.9644 C   0  0  0  0  0  0  0  0  0  0  0  0
   -2.3870  -12.8440   19.2512 C   0  0  0  0  0  0  0  0  0  0  0  0
    0.5331   -7.6964   16.2751 C   0  0  0  0  0  0  0  0  0  0  0  0
   -0.6740  -10.8737   18.0482 C   0  0  0  0  0  0  0  0  0  0  0  0
    5.6751  -10.5870   29.7637 O   0  0  0  0  0  0  0  0  0  0  0  0
    1.7612   -5.6483   26.7172 C   0  0  0  0  0  0  0  0  0  0  0  0
    0.2221   -9.8326   17.4055 C   0  0  0  0  0  0  0  0  0  0  0  0
    4.3850   -9.0730   28.6745 C   0  0  0  0  0  0  0  0  0  0  0  0
  1  7  4  0
  1 22  4  0
  2 17  4  0
  2 20  4  0
  2 28  4  0
  3  6  1  0
  3 19  1  0
  4 19  1  0
  4 26  1  0
  5 17  4  0
  5 18  4  0
  6 20  1  0
  6 26  1  0
  7 24  4  0
  8 15  4  0
  8 24  4  0
  9 14  4  0
  9 21  4  0
 10 12  4  0
 10 27  4  0
 11 12  4  0
 11 23  4  0
 13 23  4  0
 13 27  4  0
 14 20  4  0
 15 22  4  0
 16 18  4  0
 16 25  2  0
 16 28  4  0
 21 28  4  0
 24 27  1  0
M  END
$$$$

 Created by Python create_sdf_string function

 28 31  0  0  0  0  0  0  0  0999 V2000
   -1.0054  -13.0622   19.1198 C   0  0  0  0  0  0  0  0  0  0  0  0
    3.1478   -8.5360   28.5161 C   0  0  0  0  0  0  0  0  0  0  0  0
    0.5798   -7.1906   27.9330 C   0  0  0  0  0  0  0  0  0  0  0  0
    0.3978   -5.1561   26.6955 C   0  0  0  0  0  0  0  0  0  0  0  0
    2.3063  -10.0533   30.0125 C   0  0  0  0  0  0  0  0  0  0  0  0
    1.8591   -6.8254   27.4685 N   0  0  0  0  0  0  0  0  0  0  0  0
   -0.2167  -12.1055   18.5568 C   0  0  0  0  0  0  0  0  0  0  0  0
   -2.0661  -10.6994   18.1916 C   0  0  0  0  0  0  0  0  0  0  0  0
    5.2703   -7.5691   27.1123 C   0  0  0  0  0  0  0  0  0  0  0  0
    1.6204   -9.9887   17.2935 C   0  0  0  0  0  0  0  0  0  0  0  0
    1.8931   -7.9265   16.2047 C   0  0  0  0  0  0  0  0  0  0  0  0
    2.4396   -9.0801   16.7132 C   0  0  0  0  0  0  0  0  0  0  0  0
   -0.2575   -8.6234   16.8582 C   0  0  0  0  0  0  0  0  0  0  0  0
    4.0614   -7.0367   27.0106 N   0  0  0  0  0  0  0  0  0  0  0  0
   -2.9133  -11.6279   18.7578 C   0  0  0  0  0  0  0  0  0  0  0  0
    4.5688  -10.1291   29.5758 C   0  0  0  0  0  0  0  0  0  0  0  0
    2.1008   -9.0410   29.1852 N   0  0  0  0  0  0  0  0  0  0  0  0
    3.4829  -10.5697   30.2091 N   0  0  0  0  0  0  0  0  0  0  0  0
   -0.3363   -6.1172   27.5628 C   0  0  0  0  0  0  0  0  0  0  0  0
    3.0331   -7.4400   27.6362 C   0  0  0  0  0  0  0  0  0  0  0  0
    5.4553   -8.5933   27.9644 C   0  0  0  0  0  0  0  0  0  0  0  0
   -2.3870  -12.8440   19.2512 C   0  0  0  0  0  0  0  0  0  0  0  0
    0.5331   -7.6964   16.2751 C   0  0  0  0  0  0  0  0  0  0  0  0
   -0.6740  -10.8737   18.0482 C   0  0  0  0  0  0  0  0  0  0  0  0
    5.6751  -10.5870   29.7637 O   0  0  0  0  0  0  0  0  0  0  0  0
    1.7612   -5.6483   26.7172 C   0  0  0  0  0  0  0  0  0  0  0  0
    0.2221   -9.8326   17.4055 C   0  0  0  0  0  0  0  0  0  0  0  0
    4.3850   -9.0730   28.6745 C   0  0  0  0  0  0  0  0  0  0  0  0
  1  7  4  0
  1 22  4  0
  2 17  4  0
  2 20  4  0
  2 28  4  0
  3  6  1  0
  3 19  1  0
  4 19  1  0
  4 26  1  0
  5 17  4  0
  5 18  4  0
  6 20  1  0
  6 26  1  0
  7 24  4  0
  8 15  4  0
  8 24  4  0
  9 14  4  0
  9 21  4  0
 10 12  4  0
 10 27  4  0
 11 12  4  0
 11 23  4  0
 13 23  4  0
 13 27  4  0
 14 20  4  0
 15 22  4  0
 16 18  4  0
 16 25  2  0
 16 28  4  0
 21 28  4  0
 24 27  1  0
M  END
$$$$

 Created by Python create_sdf_string function

 28 31  0  0  0  0  0  0  0  0999 V2000
   -1.0054  -13.0622   19.1198 C   0  0  0  0  0  0  0  0  0  0  0  0
    3.1478   -8.5360   28.5161 C   0  0  0  0  0  0  0  0  0  0  0  0
    0.5798   -7.1906   27.9330 C   0  0  0  0  0  0  0  0  0  0  0  0
    0.3978   -5.1561   26.6955 C   0  0  0  0  0  0  0  0  0  0  0  0
    2.3063  -10.0533   30.0125 C   0  0  0  0  0  0  0  0  0  0  0  0
    1.8591   -6.8254   27.4685 N   0  0  0  0  0  0  0  0  0  0  0  0
   -0.2167  -12.1055   18.5568 C   0  0  0  0  0  0  0  0  0  0  0  0
   -2.0661  -10.6994   18.1916 C   0  0  0  0  0  0  0  0  0  0  0  0
    5.2703   -7.5691   27.1123 C   0  0  0  0  0  0  0  0  0  0  0  0
    1.6204   -9.9887   17.2935 C   0  0  0  0  0  0  0  0  0  0  0  0
    1.8931   -7.9265   16.2047 C   0  0  0  0  0  0  0  0  0  0  0  0
    2.4396   -9.0801   16.7132 C   0  0  0  0  0  0  0  0  0  0  0  0
   -0.2575   -8.6234   16.8582 C   0  0  0  0  0  0  0  0  0  0  0  0
    4.0614   -7.0367   27.0106 N   0  0  0  0  0  0  0  0  0  0  0  0
   -2.9133  -11.6279   18.7578 C   0  0  0  0  0  0  0  0  0  0  0  0
    4.5688  -10.1291   29.5758 C   0  0  0  0  0  0  0  0  0  0  0  0
    2.1008   -9.0410   29.1852 N   0  0  0  0  0  0  0  0  0  0  0  0
    3.4829  -10.5697   30.2091 N   0  0  0  0  0  0  0  0  0  0  0  0
   -0.3363   -6.1172   27.5628 C   0  0  0  0  0  0  0  0  0  0  0  0
    3.0331   -7.4400   27.6362 C   0  0  0  0  0  0  0  0  0  0  0  0
    5.4553   -8.5933   27.9644 C   0  0  0  0  0  0  0  0  0  0  0  0
   -2.3870  -12.8440   19.2512 C   0  0  0  0  0  0  0  0  0  0  0  0
    0.5331   -7.6964   16.2751 C   0  0  0  0  0  0  0  0  0  0  0  0
   -0.6740  -10.8737   18.0482 C   0  0  0  0  0  0  0  0  0  0  0  0
    5.6751  -10.5870   29.7637 O   0  0  0  0  0  0  0  0  0  0  0  0
    1.7612   -5.6483   26.7172 C   0  0  0  0  0  0  0  0  0  0  0  0
    0.2221   -9.8326   17.4055 C   0  0  0  0  0  0  0  0  0  0  0  0
    4.3850   -9.0730   28.6745 C   0  0  0  0  0  0  0  0  0  0  0  0
  1  7  4  0
  1 22  4  0
  2 17  4  0
  2 20  4  0
  2 28  4  0
  3  6  1  0
  3 19  1  0
  4 19  1  0
  4 26  1  0
  5 17  4  0
  5 18  4  0
  6 20  1  0
  6 26  1  0
  7 24  4  0
  8 15  4  0
  8 24  4  0
  9 14  4  0
  9 21  4  0
 10 12  4  0
 10 27  4  0
 11 12  4  0
 11 23  4  0
 13 23  4  0
 13 27  4  0
 14 20  4  0
 15 22  4  0
 16 18  4  0
 16 25  2  0
 16 28  4  0
 21 28  4  0
 24 27  1  0
M  END
$$$$

 Created by Python create_sdf_string function

 28 31  0  0  0  0  0  0  0  0999 V2000
   -1.0054  -13.0622   19.1198 C   0  0  0  0  0  0  0  0  0  0  0  0
    3.1478   -8.5360   28.5161 C   0  0  0  0  0  0  0  0  0  0  0  0
    0.5798   -7.1906   27.9330 C   0  0  0  0  0  0  0  0  0  0  0  0
    0.3978   -5.1561   26.6955 C   0  0  0  0  0  0  0  0  0  0  0  0
    2.3063  -10.0533   30.0125 C   0  0  0  0  0  0  0  0  0  0  0  0
    1.8591   -6.8254   27.4685 N   0  0  0  0  0  0  0  0  0  0  0  0
   -0.2167  -12.1055   18.5568 C   0  0  0  0  0  0  0  0  0  0  0  0
   -2.0661  -10.6994   18.1916 C   0  0  0  0  0  0  0  0  0  0  0  0
    5.2703   -7.5691   27.1123 C   0  0  0  0  0  0  0  0  0  0  0  0
    1.6204   -9.9887   17.2935 C   0  0  0  0  0  0  0  0  0  0  0  0
    1.8931   -7.9265   16.2047 C   0  0  0  0  0  0  0  0  0  0  0  0
    2.4396   -9.0801   16.7132 C   0  0  0  0  0  0  0  0  0  0  0  0
   -0.2575   -8.6234   16.8582 C   0  0  0  0  0  0  0  0  0  0  0  0
    4.0614   -7.0367   27.0106 N   0  0  0  0  0  0  0  0  0  0  0  0
   -2.9133  -11.6279   18.7578 C   0  0  0  0  0  0  0  0  0  0  0  0
    4.5688  -10.1291   29.5758 C   0  0  0  0  0  0  0  0  0  0  0  0
    2.1008   -9.0410   29.1852 N   0  0  0  0  0  0  0  0  0  0  0  0
    3.4829  -10.5697   30.2091 N   0  0  0  0  0  0  0  0  0  0  0  0
   -0.3363   -6.1172   27.5628 C   0  0  0  0  0  0  0  0  0  0  0  0
    3.0331   -7.4400   27.6362 C   0  0  0  0  0  0  0  0  0  0  0  0
    5.4553   -8.5933   27.9644 C   0  0  0  0  0  0  0  0  0  0  0  0
   -2.3870  -12.8440   19.2512 C   0  0  0  0  0  0  0  0  0  0  0  0
    0.5331   -7.6964   16.2751 C   0  0  0  0  0  0  0  0  0  0  0  0
   -0.6740  -10.8737   18.0482 C   0  0  0  0  0  0  0  0  0  0  0  0
    5.6751  -10.5870   29.7637 O   0  0  0  0  0  0  0  0  0  0  0  0
    1.7612   -5.6483   26.7172 C   0  0  0  0  0  0  0  0  0  0  0  0
    0.2221   -9.8326   17.4055 C   0  0  0  0  0  0  0  0  0  0  0  0
    4.3850   -9.0730   28.6745 C   0  0  0  0  0  0  0  0  0  0  0  0
  1  7  4  0
  1 22  4  0
  2 17  4  0
  2 20  4  0
  2 28  4  0
  3  6  1  0
  3 19  1  0
  4 19  1  0
  4 26  1  0
  5 17  4  0
  5 18  4  0
  6 20  1  0
  6 26  1  0
  7 24  4  0
  8 15  4  0
  8 24  4  0
  9 14  4  0
  9 21  4  0
 10 12  4  0
 10 27  4  0
 11 12  4  0
 11 23  4  0
 13 23  4  0
 13 27  4  0
 14 20  4  0
 15 22  4  0
 16 18  4  0
 16 25  2  0
 16 28  4  0
 21 28  4  0
 24 27  1  0
M  END
$$$$

 Created by Python create_sdf_string function

 28 31  0  0  0  0  0  0  0  0999 V2000
   -1.0054  -13.0622   19.1198 C   0  0  0  0  0  0  0  0  0  0  0  0
    3.1478   -8.5360   28.5161 C   0  0  0  0  0  0  0  0  0  0  0  0
    0.5798   -7.1906   27.9330 C   0  0  0  0  0  0  0  0  0  0  0  0
    0.3978   -5.1561   26.6955 C   0  0  0  0  0  0  0  0  0  0  0  0
    2.3063  -10.0533   30.0125 C   0  0  0  0  0  0  0  0  0  0  0  0
    1.8591   -6.8254   27.4685 N   0  0  0  0  0  0  0  0  0  0  0  0
   -0.2167  -12.1055   18.5568 C   0  0  0  0  0  0  0  0  0  0  0  0
   -2.0661  -10.6994   18.1916 C   0  0  0  0  0  0  0  0  0  0  0  0
    5.2703   -7.5691   27.1123 C   0  0  0  0  0  0  0  0  0  0  0  0
    1.6204   -9.9887   17.2935 C   0  0  0  0  0  0  0  0  0  0  0  0
    1.8931   -7.9265   16.2047 C   0  0  0  0  0  0  0  0  0  0  0  0
    2.4396   -9.0801   16.7132 C   0  0  0  0  0  0  0  0  0  0  0  0
   -0.2575   -8.6234   16.8582 C   0  0  0  0  0  0  0  0  0  0  0  0
    4.0614   -7.0367   27.0106 N   0  0  0  0  0  0  0  0  0  0  0  0
   -2.9133  -11.6279   18.7578 C   0  0  0  0  0  0  0  0  0  0  0  0
    4.5688  -10.1291   29.5758 C   0  0  0  0  0  0  0  0  0  0  0  0
    2.1008   -9.0410   29.1852 N   0  0  0  0  0  0  0  0  0  0  0  0
    3.4829  -10.5697   30.2091 N   0  0  0  0  0  0  0  0  0  0  0  0
   -0.3363   -6.1172   27.5628 C   0  0  0  0  0  0  0  0  0  0  0  0
    3.0331   -7.4400   27.6362 C   0  0  0  0  0  0  0  0  0  0  0  0
    5.4553   -8.5933   27.9644 C   0  0  0  0  0  0  0  0  0  0  0  0
   -2.3870  -12.8440   19.2512 C   0  0  0  0  0  0  0  0  0  0  0  0
    0.5331   -7.6964   16.2751 C   0  0  0  0  0  0  0  0  0  0  0  0
   -0.6740  -10.8737   18.0482 C   0  0  0  0  0  0  0  0  0  0  0  0
    5.6751  -10.5870   29.7637 O   0  0  0  0  0  0  0  0  0  0  0  0
    1.7612   -5.6483   26.7172 C   0  0  0  0  0  0  0  0  0  0  0  0
    0.2221   -9.8326   17.4055 C   0  0  0  0  0  0  0  0  0  0  0  0
    4.3850   -9.0730   28.6745 C   0  0  0  0  0  0  0  0  0  0  0  0
  1  7  4  0
  1 22  4  0
  2 17  4  0
  2 20  4  0
  2 28  4  0
  3  6  1  0
  3 19  1  0
  4 19  1  0
  4 26  1  0
  5 17  4  0
  5 18  4  0
  6 20  1  0
  6 26  1  0
  7 24  4  0
  8 15  4  0
  8 24  4  0
  9 14  4  0
  9 21  4  0
 10 12  4  0
 10 27  4  0
 11 12  4  0
 11 23  4  0
 13 23  4  0
 13 27  4  0
 14 20  4  0
 15 22  4  0
 16 18  4  0
 16 25  2  0
 16 28  4  0
 21 28  4  0
 24 27  1  0
M  END
$$$$

 Created by Python create_sdf_string function

 28 31  0  0  0  0  0  0  0  0999 V2000
   -1.0054  -13.0622   19.1198 C   0  0  0  0  0  0  0  0  0  0  0  0
    3.1478   -8.5360   28.5161 C   0  0  0  0  0  0  0  0  0  0  0  0
    0.5798   -7.1906   27.9330 C   0  0  0  0  0  0  0  0  0  0  0  0
    0.3978   -5.1561   26.6955 C   0  0  0  0  0  0  0  0  0  0  0  0
    2.3063  -10.0533   30.0125 C   0  0  0  0  0  0  0  0  0  0  0  0
    1.8591   -6.8254   27.4685 N   0  0  0  0  0  0  0  0  0  0  0  0
   -0.2167  -12.1055   18.5568 C   0  0  0  0  0  0  0  0  0  0  0  0
   -2.0661  -10.6994   18.1916 C   0  0  0  0  0  0  0  0  0  0  0  0
    5.2703   -7.5691   27.1123 C   0  0  0  0  0  0  0  0  0  0  0  0
    1.6204   -9.9887   17.2935 C   0  0  0  0  0  0  0  0  0  0  0  0
    1.8931   -7.9265   16.2047 C   0  0  0  0  0  0  0  0  0  0  0  0
    2.4396   -9.0801   16.7132 C   0  0  0  0  0  0  0  0  0  0  0  0
   -0.2575   -8.6234   16.8582 C   0  0  0  0  0  0  0  0  0  0  0  0
    4.0614   -7.0367   27.0106 N   0  0  0  0  0  0  0  0  0  0  0  0
   -2.9133  -11.6279   18.7578 C   0  0  0  0  0  0  0  0  0  0  0  0
    4.5688  -10.1291   29.5758 C   0  0  0  0  0  0  0  0  0  0  0  0
    2.1008   -9.0410   29.1852 N   0  0  0  0  0  0  0  0  0  0  0  0
    3.4829  -10.5697   30.2091 N   0  0  0  0  0  0  0  0  0  0  0  0
   -0.3363   -6.1172   27.5628 C   0  0  0  0  0  0  0  0  0  0  0  0
    3.0331   -7.4400   27.6362 C   0  0  0  0  0  0  0  0  0  0  0  0
    5.4553   -8.5933   27.9644 C   0  0  0  0  0  0  0  0  0  0  0  0
   -2.3870  -12.8440   19.2512 C   0  0  0  0  0  0  0  0  0  0  0  0
    0.5331   -7.6964   16.2751 C   0  0  0  0  0  0  0  0  0  0  0  0
   -0.6740  -10.8737   18.0482 C   0  0  0  0  0  0  0  0  0  0  0  0
    5.6751  -10.5870   29.7637 O   0  0  0  0  0  0  0  0  0  0  0  0
    1.7612   -5.6483   26.7172 C   0  0  0  0  0  0  0  0  0  0  0  0
    0.2221   -9.8326   17.4055 C   0  0  0  0  0  0  0  0  0  0  0  0
    4.3850   -9.0730   28.6745 C   0  0  0  0  0  0  0  0  0  0  0  0
  1  7  4  0
  1 22  4  0
  2 17  4  0
  2 20  4  0
  2 28  4  0
  3  6  1  0
  3 19  1  0
  4 19  1  0
  4 26  1  0
  5 17  4  0
  5 18  4  0
  6 20  1  0
  6 26  1  0
  7 24  4  0
  8 15  4  0
  8 24  4  0
  9 14  4  0
  9 21  4  0
 10 12  4  0
 10 27  4  0
 11 12  4  0
 11 23  4  0
 13 23  4  0
 13 27  4  0
 14 20  4  0
 15 22  4  0
 16 18  4  0
 16 25  2  0
 16 28  4  0
 21 28  4  0
 24 27  1  0
M  END
$$$$

 Created by Python create_sdf_string function

 28 31  0  0  0  0  0  0  0  0999 V2000
   -1.0054  -13.0622   19.1198 C   0  0  0  0  0  0  0  0  0  0  0  0
    3.1478   -8.5360   28.5161 C   0  0  0  0  0  0  0  0  0  0  0  0
    0.5798   -7.1906   27.9330 C   0  0  0  0  0  0  0  0  0  0  0  0
    0.3978   -5.1561   26.6955 C   0  0  0  0  0  0  0  0  0  0  0  0
    2.3063  -10.0533   30.0125 C   0  0  0  0  0  0  0  0  0  0  0  0
    1.8591   -6.8254   27.4685 N   0  0  0  0  0  0  0  0  0  0  0  0
   -0.2167  -12.1055   18.5568 C   0  0  0  0  0  0  0  0  0  0  0  0
   -2.0661  -10.6994   18.1916 C   0  0  0  0  0  0  0  0  0  0  0  0
    5.2703   -7.5691   27.1123 C   0  0  0  0  0  0  0  0  0  0  0  0
    1.6204   -9.9887   17.2935 C   0  0  0  0  0  0  0  0  0  0  0  0
    1.8931   -7.9265   16.2047 C   0  0  0  0  0  0  0  0  0  0  0  0
    2.4396   -9.0801   16.7132 C   0  0  0  0  0  0  0  0  0  0  0  0
   -0.2575   -8.6234   16.8582 C   0  0  0  0  0  0  0  0  0  0  0  0
    4.0614   -7.0367   27.0106 N   0  0  0  0  0  0  0  0  0  0  0  0
   -2.9133  -11.6279   18.7578 C   0  0  0  0  0  0  0  0  0  0  0  0
    4.5688  -10.1291   29.5758 C   0  0  0  0  0  0  0  0  0  0  0  0
    2.1008   -9.0410   29.1852 N   0  0  0  0  0  0  0  0  0  0  0  0
    3.4829  -10.5697   30.2091 N   0  0  0  0  0  0  0  0  0  0  0  0
   -0.3363   -6.1172   27.5628 C   0  0  0  0  0  0  0  0  0  0  0  0
    3.0331   -7.4400   27.6362 C   0  0  0  0  0  0  0  0  0  0  0  0
    5.4553   -8.5933   27.9644 C   0  0  0  0  0  0  0  0  0  0  0  0
   -2.3870  -12.8440   19.2512 C   0  0  0  0  0  0  0  0  0  0  0  0
    0.5331   -7.6964   16.2751 C   0  0  0  0  0  0  0  0  0  0  0  0
   -0.6740  -10.8737   18.0482 C   0  0  0  0  0  0  0  0  0  0  0  0
    5.6751  -10.5870   29.7637 O   0  0  0  0  0  0  0  0  0  0  0  0
    1.7612   -5.6483   26.7172 C   0  0  0  0  0  0  0  0  0  0  0  0
    0.2221   -9.8326   17.4055 C   0  0  0  0  0  0  0  0  0  0  0  0
    4.3850   -9.0730   28.6745 C   0  0  0  0  0  0  0  0  0  0  0  0
  1  7  4  0
  1 22  4  0
  2 17  4  0
  2 20  4  0
  2 28  4  0
  3  6  1  0
  3 19  1  0
  4 19  1  0
  4 26  1  0
  5 17  4  0
  5 18  4  0
  6 20  1  0
  6 26  1  0
  7 24  4  0
  8 15  4  0
  8 24  4  0
  9 14  4  0
  9 21  4  0
 10 12  4  0
 10 27  4  0
 11 12  4  0
 11 23  4  0
 13 23  4  0
 13 27  4  0
 14 20  4  0
 15 22  4  0
 16 18  4  0
 16 25  2  0
 16 28  4  0
 21 28  4  0
 24 27  1  0
M  END
$$$$

 Created by Python create_sdf_string function

 28 31  0  0  0  0  0  0  0  0999 V2000
   -1.0054  -13.0622   19.1198 C   0  0  0  0  0  0  0  0  0  0  0  0
    3.1478   -8.5360   28.5161 C   0  0  0  0  0  0  0  0  0  0  0  0
    0.5798   -7.1906   27.9330 C   0  0  0  0  0  0  0  0  0  0  0  0
    0.3978   -5.1561   26.6955 C   0  0  0  0  0  0  0  0  0  0  0  0
    2.3063  -10.0533   30.0125 C   0  0  0  0  0  0  0  0  0  0  0  0
    1.8591   -6.8254   27.4685 N   0  0  0  0  0  0  0  0  0  0  0  0
   -0.2167  -12.1055   18.5568 C   0  0  0  0  0  0  0  0  0  0  0  0
   -2.0661  -10.6994   18.1916 C   0  0  0  0  0  0  0  0  0  0  0  0
    5.2703   -7.5691   27.1123 C   0  0  0  0  0  0  0  0  0  0  0  0
    1.6204   -9.9887   17.2935 C   0  0  0  0  0  0  0  0  0  0  0  0
    1.8931   -7.9265   16.2047 C   0  0  0  0  0  0  0  0  0  0  0  0
    2.4396   -9.0801   16.7132 C   0  0  0  0  0  0  0  0  0  0  0  0
   -0.2575   -8.6234   16.8582 C   0  0  0  0  0  0  0  0  0  0  0  0
    4.0614   -7.0367   27.0106 N   0  0  0  0  0  0  0  0  0  0  0  0
   -2.9133  -11.6279   18.7578 C   0  0  0  0  0  0  0  0  0  0  0  0
    4.5688  -10.1291   29.5758 C   0  0  0  0  0  0  0  0  0  0  0  0
    2.1008   -9.0410   29.1852 N   0  0  0  0  0  0  0  0  0  0  0  0
    3.4829  -10.5697   30.2091 N   0  0  0  0  0  0  0  0  0  0  0  0
   -0.3363   -6.1172   27.5628 C   0  0  0  0  0  0  0  0  0  0  0  0
    3.0331   -7.4400   27.6362 C   0  0  0  0  0  0  0  0  0  0  0  0
    5.4553   -8.5933   27.9644 C   0  0  0  0  0  0  0  0  0  0  0  0
   -2.3870  -12.8440   19.2512 C   0  0  0  0  0  0  0  0  0  0  0  0
    0.5331   -7.6964   16.2751 C   0  0  0  0  0  0  0  0  0  0  0  0
   -0.6740  -10.8737   18.0482 C   0  0  0  0  0  0  0  0  0  0  0  0
    5.6751  -10.5870   29.7637 O   0  0  0  0  0  0  0  0  0  0  0  0
    1.7612   -5.6483   26.7172 C   0  0  0  0  0  0  0  0  0  0  0  0
    0.2221   -9.8326   17.4055 C   0  0  0  0  0  0  0  0  0  0  0  0
    4.3850   -9.0730   28.6745 C   0  0  0  0  0  0  0  0  0  0  0  0
  1  7  4  0
  1 22  4  0
  2 17  4  0
  2 20  4  0
  2 28  4  0
  3  6  1  0
  3 19  1  0
  4 19  1  0
  4 26  1  0
  5 17  4  0
  5 18  4  0
  6 20  1  0
  6 26  1  0
  7 24  4  0
  8 15  4  0
  8 24  4  0
  9 14  4  0
  9 21  4  0
 10 12  4  0
 10 27  4  0
 11 12  4  0
 11 23  4  0
 13 23  4  0
 13 27  4  0
 14 20  4  0
 15 22  4  0
 16 18  4  0
 16 25  2  0
 16 28  4  0
 21 28  4  0
 24 27  1  0
M  END
$$$$

 Created by Python create_sdf_string function

 28 31  0  0  0  0  0  0  0  0999 V2000
   -1.0054  -13.0622   19.1198 C   0  0  0  0  0  0  0  0  0  0  0  0
    3.1478   -8.5360   28.5161 C   0  0  0  0  0  0  0  0  0  0  0  0
    0.5798   -7.1906   27.9330 C   0  0  0  0  0  0  0  0  0  0  0  0
    0.3978   -5.1561   26.6955 C   0  0  0  0  0  0  0  0  0  0  0  0
    2.3063  -10.0533   30.0125 C   0  0  0  0  0  0  0  0  0  0  0  0
    1.8591   -6.8254   27.4685 N   0  0  0  0  0  0  0  0  0  0  0  0
   -0.2167  -12.1055   18.5568 C   0  0  0  0  0  0  0  0  0  0  0  0
   -2.0661  -10.6994   18.1916 C   0  0  0  0  0  0  0  0  0  0  0  0
    5.2703   -7.5691   27.1123 C   0  0  0  0  0  0  0  0  0  0  0  0
    1.6204   -9.9887   17.2935 C   0  0  0  0  0  0  0  0  0  0  0  0
    1.8931   -7.9265   16.2047 C   0  0  0  0  0  0  0  0  0  0  0  0
    2.4396   -9.0801   16.7132 C   0  0  0  0  0  0  0  0  0  0  0  0
   -0.2575   -8.6234   16.8582 C   0  0  0  0  0  0  0  0  0  0  0  0
    4.0614   -7.0367   27.0106 N   0  0  0  0  0  0  0  0  0  0  0  0
   -2.9133  -11.6279   18.7578 C   0  0  0  0  0  0  0  0  0  0  0  0
    4.5688  -10.1291   29.5758 C   0  0  0  0  0  0  0  0  0  0  0  0
    2.1008   -9.0410   29.1852 N   0  0  0  0  0  0  0  0  0  0  0  0
    3.4829  -10.5697   30.2091 N   0  0  0  0  0  0  0  0  0  0  0  0
   -0.3363   -6.1172   27.5628 C   0  0  0  0  0  0  0  0  0  0  0  0
    3.0331   -7.4400   27.6362 C   0  0  0  0  0  0  0  0  0  0  0  0
    5.4553   -8.5933   27.9644 C   0  0  0  0  0  0  0  0  0  0  0  0
   -2.3870  -12.8440   19.2512 C   0  0  0  0  0  0  0  0  0  0  0  0
    0.5331   -7.6964   16.2751 C   0  0  0  0  0  0  0  0  0  0  0  0
   -0.6740  -10.8737   18.0482 C   0  0  0  0  0  0  0  0  0  0  0  0
    5.6751  -10.5870   29.7637 O   0  0  0  0  0  0  0  0  0  0  0  0
    1.7612   -5.6483   26.7172 C   0  0  0  0  0  0  0  0  0  0  0  0
    0.2221   -9.8326   17.4055 C   0  0  0  0  0  0  0  0  0  0  0  0
    4.3850   -9.0730   28.6745 C   0  0  0  0  0  0  0  0  0  0  0  0
  1  7  4  0
  1 22  4  0
  2 17  4  0
  2 20  4  0
  2 28  4  0
  3  6  1  0
  3 19  1  0
  4 19  1  0
  4 26  1  0
  5 17  4  0
  5 18  4  0
  6 20  1  0
  6 26  1  0
  7 24  4  0
  8 15  4  0
  8 24  4  0
  9 14  4  0
  9 21  4  0
 10 12  4  0
 10 27  4  0
 11 12  4  0
 11 23  4  0
 13 23  4  0
 13 27  4  0
 14 20  4  0
 15 22  4  0
 16 18  4  0
 16 25  2  0
 16 28  4  0
 21 28  4  0
 24 27  1  0
M  END
$$$$

 Created by Python create_sdf_string function

 28 31  0  0  0  0  0  0  0  0999 V2000
   -1.0054  -13.0622   19.1198 C   0  0  0  0  0  0  0  0  0  0  0  0
    3.1478   -8.5360   28.5161 C   0  0  0  0  0  0  0  0  0  0  0  0
    0.5798   -7.1906   27.9330 C   0  0  0  0  0  0  0  0  0  0  0  0
    0.3978   -5.1561   26.6955 C   0  0  0  0  0  0  0  0  0  0  0  0
    2.3063  -10.0533   30.0125 C   0  0  0  0  0  0  0  0  0  0  0  0
    1.8591   -6.8254   27.4685 N   0  0  0  0  0  0  0  0  0  0  0  0
   -0.2167  -12.1055   18.5568 C   0  0  0  0  0  0  0  0  0  0  0  0
   -2.0661  -10.6994   18.1916 C   0  0  0  0  0  0  0  0  0  0  0  0
    5.2703   -7.5691   27.1123 C   0  0  0  0  0  0  0  0  0  0  0  0
    1.6204   -9.9887   17.2935 C   0  0  0  0  0  0  0  0  0  0  0  0
    1.8931   -7.9265   16.2047 C   0  0  0  0  0  0  0  0  0  0  0  0
    2.4396   -9.0801   16.7132 C   0  0  0  0  0  0  0  0  0  0  0  0
   -0.2575   -8.6234   16.8582 C   0  0  0  0  0  0  0  0  0  0  0  0
    4.0614   -7.0367   27.0106 N   0  0  0  0  0  0  0  0  0  0  0  0
   -2.9133  -11.6279   18.7578 C   0  0  0  0  0  0  0  0  0  0  0  0
    4.5688  -10.1291   29.5758 C   0  0  0  0  0  0  0  0  0  0  0  0
    2.1008   -9.0410   29.1852 N   0  0  0  0  0  0  0  0  0  0  0  0
    3.4829  -10.5697   30.2091 N   0  0  0  0  0  0  0  0  0  0  0  0
   -0.3363   -6.1172   27.5628 C   0  0  0  0  0  0  0  0  0  0  0  0
    3.0331   -7.4400   27.6362 C   0  0  0  0  0  0  0  0  0  0  0  0
    5.4553   -8.5933   27.9644 C   0  0  0  0  0  0  0  0  0  0  0  0
   -2.3870  -12.8440   19.2512 C   0  0  0  0  0  0  0  0  0  0  0  0
    0.5331   -7.6964   16.2751 C   0  0  0  0  0  0  0  0  0  0  0  0
   -0.6740  -10.8737   18.0482 C   0  0  0  0  0  0  0  0  0  0  0  0
    5.6751  -10.5870   29.7637 O   0  0  0  0  0  0  0  0  0  0  0  0
    1.7612   -5.6483   26.7172 C   0  0  0  0  0  0  0  0  0  0  0  0
    0.2221   -9.8326   17.4055 C   0  0  0  0  0  0  0  0  0  0  0  0
    4.3850   -9.0730   28.6745 C   0  0  0  0  0  0  0  0  0  0  0  0
  1  7  4  0
  1 22  4  0
  2 17  4  0
  2 20  4  0
  2 28  4  0
  3  6  1  0
  3 19  1  0
  4 19  1  0
  4 26  1  0
  5 17  4  0
  5 18  4  0
  6 20  1  0
  6 26  1  0
  7 24  4  0
  8 15  4  0
  8 24  4  0
  9 14  4  0
  9 21  4  0
 10 12  4  0
 10 27  4  0
 11 12  4  0
 11 23  4  0
 13 23  4  0
 13 27  4  0
 14 20  4  0
 15 22  4  0
 16 18  4  0
 16 25  2  0
 16 28  4  0
 21 28  4  0
 24 27  1  0
M  END
$$$$

 Created by Python create_sdf_string function

 28 31  0  0  0  0  0  0  0  0999 V2000
   -1.0054  -13.0622   19.1198 C   0  0  0  0  0  0  0  0  0  0  0  0
    3.1478   -8.5360   28.5161 C   0  0  0  0  0  0  0  0  0  0  0  0
    0.5798   -7.1906   27.9330 C   0  0  0  0  0  0  0  0  0  0  0  0
    0.3978   -5.1561   26.6955 C   0  0  0  0  0  0  0  0  0  0  0  0
    2.3063  -10.0533   30.0125 C   0  0  0  0  0  0  0  0  0  0  0  0
    1.8591   -6.8254   27.4685 N   0  0  0  0  0  0  0  0  0  0  0  0
   -0.2167  -12.1055   18.5568 C   0  0  0  0  0  0  0  0  0  0  0  0
   -2.0661  -10.6994   18.1916 C   0  0  0  0  0  0  0  0  0  0  0  0
    5.2703   -7.5691   27.1123 C   0  0  0  0  0  0  0  0  0  0  0  0
    1.6204   -9.9887   17.2935 C   0  0  0  0  0  0  0  0  0  0  0  0
    1.8931   -7.9265   16.2047 C   0  0  0  0  0  0  0  0  0  0  0  0
    2.4396   -9.0801   16.7132 C   0  0  0  0  0  0  0  0  0  0  0  0
   -0.2575   -8.6234   16.8582 C   0  0  0  0  0  0  0  0  0  0  0  0
    4.0614   -7.0367   27.0106 N   0  0  0  0  0  0  0  0  0  0  0  0
   -2.9133  -11.6279   18.7578 C   0  0  0  0  0  0  0  0  0  0  0  0
    4.5688  -10.1291   29.5758 C   0  0  0  0  0  0  0  0  0  0  0  0
    2.1008   -9.0410   29.1852 N   0  0  0  0  0  0  0  0  0  0  0  0
    3.4829  -10.5697   30.2091 N   0  0  0  0  0  0  0  0  0  0  0  0
   -0.3363   -6.1172   27.5628 C   0  0  0  0  0  0  0  0  0  0  0  0
    3.0331   -7.4400   27.6362 C   0  0  0  0  0  0  0  0  0  0  0  0
    5.4553   -8.5933   27.9644 C   0  0  0  0  0  0  0  0  0  0  0  0
   -2.3870  -12.8440   19.2512 C   0  0  0  0  0  0  0  0  0  0  0  0
    0.5331   -7.6964   16.2751 C   0  0  0  0  0  0  0  0  0  0  0  0
   -0.6740  -10.8737   18.0482 C   0  0  0  0  0  0  0  0  0  0  0  0
    5.6751  -10.5870   29.7637 O   0  0  0  0  0  0  0  0  0  0  0  0
    1.7612   -5.6483   26.7172 C   0  0  0  0  0  0  0  0  0  0  0  0
    0.2221   -9.8326   17.4055 C   0  0  0  0  0  0  0  0  0  0  0  0
    4.3850   -9.0730   28.6745 C   0  0  0  0  0  0  0  0  0  0  0  0
  1  7  4  0
  1 22  4  0
  2 17  4  0
  2 20  4  0
  2 28  4  0
  3  6  1  0
  3 19  1  0
  4 19  1  0
  4 26  1  0
  5 17  4  0
  5 18  4  0
  6 20  1  0
  6 26  1  0
  7 24  4  0
  8 15  4  0
  8 24  4  0
  9 14  4  0
  9 21  4  0
 10 12  4  0
 10 27  4  0
 11 12  4  0
 11 23  4  0
 13 23  4  0
 13 27  4  0
 14 20  4  0
 15 22  4  0
 16 18  4  0
 16 25  2  0
 16 28  4  0
 21 28  4  0
 24 27  1  0
M  END
$$$$

 Created by Python create_sdf_string function

 28 31  0  0  0  0  0  0  0  0999 V2000
   -1.0054  -13.0622   19.1198 C   0  0  0  0  0  0  0  0  0  0  0  0
    3.1478   -8.5360   28.5161 C   0  0  0  0  0  0  0  0  0  0  0  0
    0.5798   -7.1906   27.9330 C   0  0  0  0  0  0  0  0  0  0  0  0
    0.3978   -5.1561   26.6955 C   0  0  0  0  0  0  0  0  0  0  0  0
    2.3063  -10.0533   30.0125 C   0  0  0  0  0  0  0  0  0  0  0  0
    1.8591   -6.8254   27.4685 N   0  0  0  0  0  0  0  0  0  0  0  0
   -0.2167  -12.1055   18.5568 C   0  0  0  0  0  0  0  0  0  0  0  0
   -2.0661  -10.6994   18.1916 C   0  0  0  0  0  0  0  0  0  0  0  0
    5.2703   -7.5691   27.1123 C   0  0  0  0  0  0  0  0  0  0  0  0
    1.6204   -9.9887   17.2935 C   0  0  0  0  0  0  0  0  0  0  0  0
    1.8931   -7.9265   16.2047 C   0  0  0  0  0  0  0  0  0  0  0  0
    2.4396   -9.0801   16.7132 C   0  0  0  0  0  0  0  0  0  0  0  0
   -0.2575   -8.6234   16.8582 C   0  0  0  0  0  0  0  0  0  0  0  0
    4.0614   -7.0367   27.0106 N   0  0  0  0  0  0  0  0  0  0  0  0
   -2.9133  -11.6279   18.7578 C   0  0  0  0  0  0  0  0  0  0  0  0
    4.5688  -10.1291   29.5758 C   0  0  0  0  0  0  0  0  0  0  0  0
    2.1008   -9.0410   29.1852 N   0  0  0  0  0  0  0  0  0  0  0  0
    3.4829  -10.5697   30.2091 N   0  0  0  0  0  0  0  0  0  0  0  0
   -0.3363   -6.1172   27.5628 C   0  0  0  0  0  0  0  0  0  0  0  0
    3.0331   -7.4400   27.6362 C   0  0  0  0  0  0  0  0  0  0  0  0
    5.4553   -8.5933   27.9644 C   0  0  0  0  0  0  0  0  0  0  0  0
   -2.3870  -12.8440   19.2512 C   0  0  0  0  0  0  0  0  0  0  0  0
    0.5331   -7.6964   16.2751 C   0  0  0  0  0  0  0  0  0  0  0  0
   -0.6740  -10.8737   18.0482 C   0  0  0  0  0  0  0  0  0  0  0  0
    5.6751  -10.5870   29.7637 O   0  0  0  0  0  0  0  0  0  0  0  0
    1.7612   -5.6483   26.7172 C   0  0  0  0  0  0  0  0  0  0  0  0
    0.2221   -9.8326   17.4055 C   0  0  0  0  0  0  0  0  0  0  0  0
    4.3850   -9.0730   28.6745 C   0  0  0  0  0  0  0  0  0  0  0  0
  1  7  4  0
  1 22  4  0
  2 17  4  0
  2 20  4  0
  2 28  4  0
  3  6  1  0
  3 19  1  0
  4 19  1  0
  4 26  1  0
  5 17  4  0
  5 18  4  0
  6 20  1  0
  6 26  1  0
  7 24  4  0
  8 15  4  0
  8 24  4  0
  9 14  4  0
  9 21  4  0
 10 12  4  0
 10 27  4  0
 11 12  4  0
 11 23  4  0
 13 23  4  0
 13 27  4  0
 14 20  4  0
 15 22  4  0
 16 18  4  0
 16 25  2  0
 16 28  4  0
 21 28  4  0
 24 27  1  0
M  END
$$$$

 Created by Python create_sdf_string function

 28 31  0  0  0  0  0  0  0  0999 V2000
   -1.0054  -13.0622   19.1198 C   0  0  0  0  0  0  0  0  0  0  0  0
    3.1478   -8.5360   28.5161 C   0  0  0  0  0  0  0  0  0  0  0  0
    0.5798   -7.1906   27.9330 C   0  0  0  0  0  0  0  0  0  0  0  0
    0.3978   -5.1561   26.6955 C   0  0  0  0  0  0  0  0  0  0  0  0
    2.3063  -10.0533   30.0125 C   0  0  0  0  0  0  0  0  0  0  0  0
    1.8591   -6.8254   27.4685 N   0  0  0  0  0  0  0  0  0  0  0  0
   -0.2167  -12.1055   18.5568 C   0  0  0  0  0  0  0  0  0  0  0  0
   -2.0661  -10.6994   18.1916 C   0  0  0  0  0  0  0  0  0  0  0  0
    5.2703   -7.5691   27.1123 C   0  0  0  0  0  0  0  0  0  0  0  0
    1.6204   -9.9887   17.2935 C   0  0  0  0  0  0  0  0  0  0  0  0
    1.8931   -7.9265   16.2047 C   0  0  0  0  0  0  0  0  0  0  0  0
    2.4396   -9.0801   16.7132 C   0  0  0  0  0  0  0  0  0  0  0  0
   -0.2575   -8.6234   16.8582 C   0  0  0  0  0  0  0  0  0  0  0  0
    4.0614   -7.0367   27.0106 N   0  0  0  0  0  0  0  0  0  0  0  0
   -2.9133  -11.6279   18.7578 C   0  0  0  0  0  0  0  0  0  0  0  0
    4.5688  -10.1291   29.5758 C   0  0  0  0  0  0  0  0  0  0  0  0
    2.1008   -9.0410   29.1852 N   0  0  0  0  0  0  0  0  0  0  0  0
    3.4829  -10.5697   30.2091 N   0  0  0  0  0  0  0  0  0  0  0  0
   -0.3363   -6.1172   27.5628 C   0  0  0  0  0  0  0  0  0  0  0  0
    3.0331   -7.4400   27.6362 C   0  0  0  0  0  0  0  0  0  0  0  0
    5.4553   -8.5933   27.9644 C   0  0  0  0  0  0  0  0  0  0  0  0
   -2.3870  -12.8440   19.2512 C   0  0  0  0  0  0  0  0  0  0  0  0
    0.5331   -7.6964   16.2751 C   0  0  0  0  0  0  0  0  0  0  0  0
   -0.6740  -10.8737   18.0482 C   0  0  0  0  0  0  0  0  0  0  0  0
    5.6751  -10.5870   29.7637 O   0  0  0  0  0  0  0  0  0  0  0  0
    1.7612   -5.6483   26.7172 C   0  0  0  0  0  0  0  0  0  0  0  0
    0.2221   -9.8326   17.4055 C   0  0  0  0  0  0  0  0  0  0  0  0
    4.3850   -9.0730   28.6745 C   0  0  0  0  0  0  0  0  0  0  0  0
  1  7  4  0
  1 22  4  0
  2 17  4  0
  2 20  4  0
  2 28  4  0
  3  6  1  0
  3 19  1  0
  4 19  1  0
  4 26  1  0
  5 17  4  0
  5 18  4  0
  6 20  1  0
  6 26  1  0
  7 24  4  0
  8 15  4  0
  8 24  4  0
  9 14  4  0
  9 21  4  0
 10 12  4  0
 10 27  4  0
 11 12  4  0
 11 23  4  0
 13 23  4  0
 13 27  4  0
 14 20  4  0
 15 22  4  0
 16 18  4  0
 16 25  2  0
 16 28  4  0
 21 28  4  0
 24 27  1  0
M  END
$$$$

 Created by Python create_sdf_string function

 28 31  0  0  0  0  0  0  0  0999 V2000
   -1.0054  -13.0622   19.1198 C   0  0  0  0  0  0  0  0  0  0  0  0
    3.1478   -8.5360   28.5161 C   0  0  0  0  0  0  0  0  0  0  0  0
    0.5798   -7.1906   27.9330 C   0  0  0  0  0  0  0  0  0  0  0  0
    0.3978   -5.1561   26.6955 C   0  0  0  0  0  0  0  0  0  0  0  0
    2.3063  -10.0533   30.0125 C   0  0  0  0  0  0  0  0  0  0  0  0
    1.8591   -6.8254   27.4685 N   0  0  0  0  0  0  0  0  0  0  0  0
   -0.2167  -12.1055   18.5568 C   0  0  0  0  0  0  0  0  0  0  0  0
   -2.0661  -10.6994   18.1916 C   0  0  0  0  0  0  0  0  0  0  0  0
    5.2703   -7.5691   27.1123 C   0  0  0  0  0  0  0  0  0  0  0  0
    1.6204   -9.9887   17.2935 C   0  0  0  0  0  0  0  0  0  0  0  0
    1.8931   -7.9265   16.2047 C   0  0  0  0  0  0  0  0  0  0  0  0
    2.4396   -9.0801   16.7132 C   0  0  0  0  0  0  0  0  0  0  0  0
   -0.2575   -8.6234   16.8582 C   0  0  0  0  0  0  0  0  0  0  0  0
    4.0614   -7.0367   27.0106 N   0  0  0  0  0  0  0  0  0  0  0  0
   -2.9133  -11.6279   18.7578 C   0  0  0  0  0  0  0  0  0  0  0  0
    4.5688  -10.1291   29.5758 C   0  0  0  0  0  0  0  0  0  0  0  0
    2.1008   -9.0410   29.1852 N   0  0  0  0  0  0  0  0  0  0  0  0
    3.4829  -10.5697   30.2091 N   0  0  0  0  0  0  0  0  0  0  0  0
   -0.3363   -6.1172   27.5628 C   0  0  0  0  0  0  0  0  0  0  0  0
    3.0331   -7.4400   27.6362 C   0  0  0  0  0  0  0  0  0  0  0  0
    5.4553   -8.5933   27.9644 C   0  0  0  0  0  0  0  0  0  0  0  0
   -2.3870  -12.8440   19.2512 C   0  0  0  0  0  0  0  0  0  0  0  0
    0.5331   -7.6964   16.2751 C   0  0  0  0  0  0  0  0  0  0  0  0
   -0.6740  -10.8737   18.0482 C   0  0  0  0  0  0  0  0  0  0  0  0
    5.6751  -10.5870   29.7637 O   0  0  0  0  0  0  0  0  0  0  0  0
    1.7612   -5.6483   26.7172 C   0  0  0  0  0  0  0  0  0  0  0  0
    0.2221   -9.8326   17.4055 C   0  0  0  0  0  0  0  0  0  0  0  0
    4.3850   -9.0730   28.6745 C   0  0  0  0  0  0  0  0  0  0  0  0
  1  7  4  0
  1 22  4  0
  2 17  4  0
  2 20  4  0
  2 28  4  0
  3  6  1  0
  3 19  1  0
  4 19  1  0
  4 26  1  0
  5 17  4  0
  5 18  4  0
  6 20  1  0
  6 26  1  0
  7 24  4  0
  8 15  4  0
  8 24  4  0
  9 14  4  0
  9 21  4  0
 10 12  4  0
 10 27  4  0
 11 12  4  0
 11 23  4  0
 13 23  4  0
 13 27  4  0
 14 20  4  0
 15 22  4  0
 16 18  4  0
 16 25  2  0
 16 28  4  0
 21 28  4  0
 24 27  1  0
M  END
$$$$

 Created by Python create_sdf_string function

 28 31  0  0  0  0  0  0  0  0999 V2000
   -1.0054  -13.0622   19.1198 C   0  0  0  0  0  0  0  0  0  0  0  0
    3.1478   -8.5360   28.5161 C   0  0  0  0  0  0  0  0  0  0  0  0
    0.5798   -7.1906   27.9330 C   0  0  0  0  0  0  0  0  0  0  0  0
    0.3978   -5.1561   26.6955 C   0  0  0  0  0  0  0  0  0  0  0  0
    2.3063  -10.0533   30.0125 C   0  0  0  0  0  0  0  0  0  0  0  0
    1.8591   -6.8254   27.4685 N   0  0  0  0  0  0  0  0  0  0  0  0
   -0.2167  -12.1055   18.5568 C   0  0  0  0  0  0  0  0  0  0  0  0
   -2.0661  -10.6994   18.1916 C   0  0  0  0  0  0  0  0  0  0  0  0
    5.2703   -7.5691   27.1123 C   0  0  0  0  0  0  0  0  0  0  0  0
    1.6204   -9.9887   17.2935 C   0  0  0  0  0  0  0  0  0  0  0  0
    1.8931   -7.9265   16.2047 C   0  0  0  0  0  0  0  0  0  0  0  0
    2.4396   -9.0801   16.7132 C   0  0  0  0  0  0  0  0  0  0  0  0
   -0.2575   -8.6234   16.8582 C   0  0  0  0  0  0  0  0  0  0  0  0
    4.0614   -7.0367   27.0106 N   0  0  0  0  0  0  0  0  0  0  0  0
   -2.9133  -11.6279   18.7578 C   0  0  0  0  0  0  0  0  0  0  0  0
    4.5688  -10.1291   29.5758 C   0  0  0  0  0  0  0  0  0  0  0  0
    2.1008   -9.0410   29.1852 N   0  0  0  0  0  0  0  0  0  0  0  0
    3.4829  -10.5697   30.2091 N   0  0  0  0  0  0  0  0  0  0  0  0
   -0.3363   -6.1172   27.5628 C   0  0  0  0  0  0  0  0  0  0  0  0
    3.0331   -7.4400   27.6362 C   0  0  0  0  0  0  0  0  0  0  0  0
    5.4553   -8.5933   27.9644 C   0  0  0  0  0  0  0  0  0  0  0  0
   -2.3870  -12.8440   19.2512 C   0  0  0  0  0  0  0  0  0  0  0  0
    0.5331   -7.6964   16.2751 C   0  0  0  0  0  0  0  0  0  0  0  0
   -0.6740  -10.8737   18.0482 C   0  0  0  0  0  0  0  0  0  0  0  0
    5.6751  -10.5870   29.7637 O   0  0  0  0  0  0  0  0  0  0  0  0
    1.7612   -5.6483   26.7172 C   0  0  0  0  0  0  0  0  0  0  0  0
    0.2221   -9.8326   17.4055 C   0  0  0  0  0  0  0  0  0  0  0  0
    4.3850   -9.0730   28.6745 C   0  0  0  0  0  0  0  0  0  0  0  0
  1  7  4  0
  1 22  4  0
  2 17  4  0
  2 20  4  0
  2 28  4  0
  3  6  1  0
  3 19  1  0
  4 19  1  0
  4 26  1  0
  5 17  4  0
  5 18  4  0
  6 20  1  0
  6 26  1  0
  7 24  4  0
  8 15  4  0
  8 24  4  0
  9 14  4  0
  9 21  4  0
 10 12  4  0
 10 27  4  0
 11 12  4  0
 11 23  4  0
 13 23  4  0
 13 27  4  0
 14 20  4  0
 15 22  4  0
 16 18  4  0
 16 25  2  0
 16 28  4  0
 21 28  4  0
 24 27  1  0
M  END
$$$$

 Created by Python create_sdf_string function

 28 31  0  0  0  0  0  0  0  0999 V2000
   -1.0054  -13.0622   19.1198 C   0  0  0  0  0  0  0  0  0  0  0  0
    3.1478   -8.5360   28.5161 C   0  0  0  0  0  0  0  0  0  0  0  0
    0.5798   -7.1906   27.9330 C   0  0  0  0  0  0  0  0  0  0  0  0
    0.3978   -5.1561   26.6955 C   0  0  0  0  0  0  0  0  0  0  0  0
    2.3063  -10.0533   30.0125 C   0  0  0  0  0  0  0  0  0  0  0  0
    1.8591   -6.8254   27.4685 N   0  0  0  0  0  0  0  0  0  0  0  0
   -0.2167  -12.1055   18.5568 C   0  0  0  0  0  0  0  0  0  0  0  0
   -2.0661  -10.6994   18.1916 C   0  0  0  0  0  0  0  0  0  0  0  0
    5.2703   -7.5691   27.1123 C   0  0  0  0  0  0  0  0  0  0  0  0
    1.6204   -9.9887   17.2935 C   0  0  0  0  0  0  0  0  0  0  0  0
    1.8931   -7.9265   16.2047 C   0  0  0  0  0  0  0  0  0  0  0  0
    2.4396   -9.0801   16.7132 C   0  0  0  0  0  0  0  0  0  0  0  0
   -0.2575   -8.6234   16.8582 C   0  0  0  0  0  0  0  0  0  0  0  0
    4.0614   -7.0367   27.0106 N   0  0  0  0  0  0  0  0  0  0  0  0
   -2.9133  -11.6279   18.7578 C   0  0  0  0  0  0  0  0  0  0  0  0
    4.5688  -10.1291   29.5758 C   0  0  0  0  0  0  0  0  0  0  0  0
    2.1008   -9.0410   29.1852 N   0  0  0  0  0  0  0  0  0  0  0  0
    3.4829  -10.5697   30.2091 N   0  0  0  0  0  0  0  0  0  0  0  0
   -0.3363   -6.1172   27.5628 C   0  0  0  0  0  0  0  0  0  0  0  0
    3.0331   -7.4400   27.6362 C   0  0  0  0  0  0  0  0  0  0  0  0
    5.4553   -8.5933   27.9644 C   0  0  0  0  0  0  0  0  0  0  0  0
   -2.3870  -12.8440   19.2512 C   0  0  0  0  0  0  0  0  0  0  0  0
    0.5331   -7.6964   16.2751 C   0  0  0  0  0  0  0  0  0  0  0  0
   -0.6740  -10.8737   18.0482 C   0  0  0  0  0  0  0  0  0  0  0  0
    5.6751  -10.5870   29.7637 O   0  0  0  0  0  0  0  0  0  0  0  0
    1.7612   -5.6483   26.7172 C   0  0  0  0  0  0  0  0  0  0  0  0
    0.2221   -9.8326   17.4055 C   0  0  0  0  0  0  0  0  0  0  0  0
    4.3850   -9.0730   28.6745 C   0  0  0  0  0  0  0  0  0  0  0  0
  1  7  4  0
  1 22  4  0
  2 17  4  0
  2 20  4  0
  2 28  4  0
  3  6  1  0
  3 19  1  0
  4 19  1  0
  4 26  1  0
  5 17  4  0
  5 18  4  0
  6 20  1  0
  6 26  1  0
  7 24  4  0
  8 15  4  0
  8 24  4  0
  9 14  4  0
  9 21  4  0
 10 12  4  0
 10 27  4  0
 11 12  4  0
 11 23  4  0
 13 23  4  0
 13 27  4  0
 14 20  4  0
 15 22  4  0
 16 18  4  0
 16 25  2  0
 16 28  4  0
 21 28  4  0
 24 27  1  0
M  END
$$$$

 Created by Python create_sdf_string function

 28 31  0  0  0  0  0  0  0  0999 V2000
   -1.0054  -13.0622   19.1198 C   0  0  0  0  0  0  0  0  0  0  0  0
    3.1478   -8.5360   28.5161 C   0  0  0  0  0  0  0  0  0  0  0  0
    0.5798   -7.1906   27.9330 C   0  0  0  0  0  0  0  0  0  0  0  0
    0.3978   -5.1561   26.6955 C   0  0  0  0  0  0  0  0  0  0  0  0
    2.3063  -10.0533   30.0125 C   0  0  0  0  0  0  0  0  0  0  0  0
    1.8591   -6.8254   27.4685 N   0  0  0  0  0  0  0  0  0  0  0  0
   -0.2167  -12.1055   18.5568 C   0  0  0  0  0  0  0  0  0  0  0  0
   -2.0661  -10.6994   18.1916 C   0  0  0  0  0  0  0  0  0  0  0  0
    5.2703   -7.5691   27.1123 C   0  0  0  0  0  0  0  0  0  0  0  0
    1.6204   -9.9887   17.2935 C   0  0  0  0  0  0  0  0  0  0  0  0
    1.8931   -7.9265   16.2047 C   0  0  0  0  0  0  0  0  0  0  0  0
    2.4396   -9.0801   16.7132 C   0  0  0  0  0  0  0  0  0  0  0  0
   -0.2575   -8.6234   16.8582 C   0  0  0  0  0  0  0  0  0  0  0  0
    4.0614   -7.0367   27.0106 N   0  0  0  0  0  0  0  0  0  0  0  0
   -2.9133  -11.6279   18.7578 C   0  0  0  0  0  0  0  0  0  0  0  0
    4.5688  -10.1291   29.5758 C   0  0  0  0  0  0  0  0  0  0  0  0
    2.1008   -9.0410   29.1852 N   0  0  0  0  0  0  0  0  0  0  0  0
    3.4829  -10.5697   30.2091 N   0  0  0  0  0  0  0  0  0  0  0  0
   -0.3363   -6.1172   27.5628 C   0  0  0  0  0  0  0  0  0  0  0  0
    3.0331   -7.4400   27.6362 C   0  0  0  0  0  0  0  0  0  0  0  0
    5.4553   -8.5933   27.9644 C   0  0  0  0  0  0  0  0  0  0  0  0
   -2.3870  -12.8440   19.2512 C   0  0  0  0  0  0  0  0  0  0  0  0
    0.5331   -7.6964   16.2751 C   0  0  0  0  0  0  0  0  0  0  0  0
   -0.6740  -10.8737   18.0482 C   0  0  0  0  0  0  0  0  0  0  0  0
    5.6751  -10.5870   29.7637 O   0  0  0  0  0  0  0  0  0  0  0  0
    1.7612   -5.6483   26.7172 C   0  0  0  0  0  0  0  0  0  0  0  0
    0.2221   -9.8326   17.4055 C   0  0  0  0  0  0  0  0  0  0  0  0
    4.3850   -9.0730   28.6745 C   0  0  0  0  0  0  0  0  0  0  0  0
  1  7  4  0
  1 22  4  0
  2 17  4  0
  2 20  4  0
  2 28  4  0
  3  6  1  0
  3 19  1  0
  4 19  1  0
  4 26  1  0
  5 17  4  0
  5 18  4  0
  6 20  1  0
  6 26  1  0
  7 24  4  0
  8 15  4  0
  8 24  4  0
  9 14  4  0
  9 21  4  0
 10 12  4  0
 10 27  4  0
 11 12  4  0
 11 23  4  0
 13 23  4  0
 13 27  4  0
 14 20  4  0
 15 22  4  0
 16 18  4  0
 16 25  2  0
 16 28  4  0
 21 28  4  0
 24 27  1  0
M  END
$$$$

 Created by Python create_sdf_string function

 28 31  0  0  0  0  0  0  0  0999 V2000
   -1.0054  -13.0622   19.1198 C   0  0  0  0  0  0  0  0  0  0  0  0
    3.1478   -8.5360   28.5161 C   0  0  0  0  0  0  0  0  0  0  0  0
    0.5798   -7.1906   27.9330 C   0  0  0  0  0  0  0  0  0  0  0  0
    0.3978   -5.1561   26.6955 C   0  0  0  0  0  0  0  0  0  0  0  0
    2.3063  -10.0533   30.0125 C   0  0  0  0  0  0  0  0  0  0  0  0
    1.8591   -6.8254   27.4685 N   0  0  0  0  0  0  0  0  0  0  0  0
   -0.2167  -12.1055   18.5568 C   0  0  0  0  0  0  0  0  0  0  0  0
   -2.0661  -10.6994   18.1916 C   0  0  0  0  0  0  0  0  0  0  0  0
    5.2703   -7.5691   27.1123 C   0  0  0  0  0  0  0  0  0  0  0  0
    1.6204   -9.9887   17.2935 C   0  0  0  0  0  0  0  0  0  0  0  0
    1.8931   -7.9265   16.2047 C   0  0  0  0  0  0  0  0  0  0  0  0
    2.4396   -9.0801   16.7132 C   0  0  0  0  0  0  0  0  0  0  0  0
   -0.2575   -8.6234   16.8582 C   0  0  0  0  0  0  0  0  0  0  0  0
    4.0614   -7.0367   27.0106 N   0  0  0  0  0  0  0  0  0  0  0  0
   -2.9133  -11.6279   18.7578 C   0  0  0  0  0  0  0  0  0  0  0  0
    4.5688  -10.1291   29.5758 C   0  0  0  0  0  0  0  0  0  0  0  0
    2.1008   -9.0410   29.1852 N   0  0  0  0  0  0  0  0  0  0  0  0
    3.4829  -10.5697   30.2091 N   0  0  0  0  0  0  0  0  0  0  0  0
   -0.3363   -6.1172   27.5628 C   0  0  0  0  0  0  0  0  0  0  0  0
    3.0331   -7.4400   27.6362 C   0  0  0  0  0  0  0  0  0  0  0  0
    5.4553   -8.5933   27.9644 C   0  0  0  0  0  0  0  0  0  0  0  0
   -2.3870  -12.8440   19.2512 C   0  0  0  0  0  0  0  0  0  0  0  0
    0.5331   -7.6964   16.2751 C   0  0  0  0  0  0  0  0  0  0  0  0
   -0.6740  -10.8737   18.0482 C   0  0  0  0  0  0  0  0  0  0  0  0
    5.6751  -10.5870   29.7637 O   0  0  0  0  0  0  0  0  0  0  0  0
    1.7612   -5.6483   26.7172 C   0  0  0  0  0  0  0  0  0  0  0  0
    0.2221   -9.8326   17.4055 C   0  0  0  0  0  0  0  0  0  0  0  0
    4.3850   -9.0730   28.6745 C   0  0  0  0  0  0  0  0  0  0  0  0
  1  7  4  0
  1 22  4  0
  2 17  4  0
  2 20  4  0
  2 28  4  0
  3  6  1  0
  3 19  1  0
  4 19  1  0
  4 26  1  0
  5 17  4  0
  5 18  4  0
  6 20  1  0
  6 26  1  0
  7 24  4  0
  8 15  4  0
  8 24  4  0
  9 14  4  0
  9 21  4  0
 10 12  4  0
 10 27  4  0
 11 12  4  0
 11 23  4  0
 13 23  4  0
 13 27  4  0
 14 20  4  0
 15 22  4  0
 16 18  4  0
 16 25  2  0
 16 28  4  0
 21 28  4  0
 24 27  1  0
M  END
$$$$

 Created by Python create_sdf_string function

 28 31  0  0  0  0  0  0  0  0999 V2000
   -1.0054  -13.0622   19.1198 C   0  0  0  0  0  0  0  0  0  0  0  0
    3.1478   -8.5360   28.5161 C   0  0  0  0  0  0  0  0  0  0  0  0
    0.5798   -7.1906   27.9330 C   0  0  0  0  0  0  0  0  0  0  0  0
    0.3978   -5.1561   26.6955 C   0  0  0  0  0  0  0  0  0  0  0  0
    2.3063  -10.0533   30.0125 C   0  0  0  0  0  0  0  0  0  0  0  0
    1.8591   -6.8254   27.4685 N   0  0  0  0  0  0  0  0  0  0  0  0
   -0.2167  -12.1055   18.5568 C   0  0  0  0  0  0  0  0  0  0  0  0
   -2.0661  -10.6994   18.1916 C   0  0  0  0  0  0  0  0  0  0  0  0
    5.2703   -7.5691   27.1123 C   0  0  0  0  0  0  0  0  0  0  0  0
    1.6204   -9.9887   17.2935 C   0  0  0  0  0  0  0  0  0  0  0  0
    1.8931   -7.9265   16.2047 C   0  0  0  0  0  0  0  0  0  0  0  0
    2.4396   -9.0801   16.7132 C   0  0  0  0  0  0  0  0  0  0  0  0
   -0.2575   -8.6234   16.8582 C   0  0  0  0  0  0  0  0  0  0  0  0
    4.0614   -7.0367   27.0106 N   0  0  0  0  0  0  0  0  0  0  0  0
   -2.9133  -11.6279   18.7578 C   0  0  0  0  0  0  0  0  0  0  0  0
    4.5688  -10.1291   29.5758 C   0  0  0  0  0  0  0  0  0  0  0  0
    2.1008   -9.0410   29.1852 N   0  0  0  0  0  0  0  0  0  0  0  0
    3.4829  -10.5697   30.2091 N   0  0  0  0  0  0  0  0  0  0  0  0
   -0.3363   -6.1172   27.5628 C   0  0  0  0  0  0  0  0  0  0  0  0
    3.0331   -7.4400   27.6362 C   0  0  0  0  0  0  0  0  0  0  0  0
    5.4553   -8.5933   27.9644 C   0  0  0  0  0  0  0  0  0  0  0  0
   -2.3870  -12.8440   19.2512 C   0  0  0  0  0  0  0  0  0  0  0  0
    0.5331   -7.6964   16.2751 C   0  0  0  0  0  0  0  0  0  0  0  0
   -0.6740  -10.8737   18.0482 C   0  0  0  0  0  0  0  0  0  0  0  0
    5.6751  -10.5870   29.7637 O   0  0  0  0  0  0  0  0  0  0  0  0
    1.7612   -5.6483   26.7172 C   0  0  0  0  0  0  0  0  0  0  0  0
    0.2221   -9.8326   17.4055 C   0  0  0  0  0  0  0  0  0  0  0  0
    4.3850   -9.0730   28.6745 C   0  0  0  0  0  0  0  0  0  0  0  0
  1  7  4  0
  1 22  4  0
  2 17  4  0
  2 20  4  0
  2 28  4  0
  3  6  1  0
  3 19  1  0
  4 19  1  0
  4 26  1  0
  5 17  4  0
  5 18  4  0
  6 20  1  0
  6 26  1  0
  7 24  4  0
  8 15  4  0
  8 24  4  0
  9 14  4  0
  9 21  4  0
 10 12  4  0
 10 27  4  0
 11 12  4  0
 11 23  4  0
 13 23  4  0
 13 27  4  0
 14 20  4  0
 15 22  4  0
 16 18  4  0
 16 25  2  0
 16 28  4  0
 21 28  4  0
 24 27  1  0
M  END
$$$$

 Created by Python create_sdf_string function

 28 31  0  0  0  0  0  0  0  0999 V2000
   -1.0054  -13.0622   19.1198 C   0  0  0  0  0  0  0  0  0  0  0  0
    3.1478   -8.5360   28.5161 C   0  0  0  0  0  0  0  0  0  0  0  0
    0.5798   -7.1906   27.9330 C   0  0  0  0  0  0  0  0  0  0  0  0
    0.3978   -5.1561   26.6955 C   0  0  0  0  0  0  0  0  0  0  0  0
    2.3063  -10.0533   30.0125 C   0  0  0  0  0  0  0  0  0  0  0  0
    1.8591   -6.8254   27.4685 N   0  0  0  0  0  0  0  0  0  0  0  0
   -0.2167  -12.1055   18.5568 C   0  0  0  0  0  0  0  0  0  0  0  0
   -2.0661  -10.6994   18.1916 C   0  0  0  0  0  0  0  0  0  0  0  0
    5.2703   -7.5691   27.1123 C   0  0  0  0  0  0  0  0  0  0  0  0
    1.6204   -9.9887   17.2935 C   0  0  0  0  0  0  0  0  0  0  0  0
    1.8931   -7.9265   16.2047 C   0  0  0  0  0  0  0  0  0  0  0  0
    2.4396   -9.0801   16.7132 C   0  0  0  0  0  0  0  0  0  0  0  0
   -0.2575   -8.6234   16.8582 C   0  0  0  0  0  0  0  0  0  0  0  0
    4.0614   -7.0367   27.0106 N   0  0  0  0  0  0  0  0  0  0  0  0
   -2.9133  -11.6279   18.7578 C   0  0  0  0  0  0  0  0  0  0  0  0
    4.5688  -10.1291   29.5758 C   0  0  0  0  0  0  0  0  0  0  0  0
    2.1008   -9.0410   29.1852 N   0  0  0  0  0  0  0  0  0  0  0  0
    3.4829  -10.5697   30.2091 N   0  0  0  0  0  0  0  0  0  0  0  0
   -0.3363   -6.1172   27.5628 C   0  0  0  0  0  0  0  0  0  0  0  0
    3.0331   -7.4400   27.6362 C   0  0  0  0  0  0  0  0  0  0  0  0
    5.4553   -8.5933   27.9644 C   0  0  0  0  0  0  0  0  0  0  0  0
   -2.3870  -12.8440   19.2512 C   0  0  0  0  0  0  0  0  0  0  0  0
    0.5331   -7.6964   16.2751 C   0  0  0  0  0  0  0  0  0  0  0  0
   -0.6740  -10.8737   18.0482 C   0  0  0  0  0  0  0  0  0  0  0  0
    5.6751  -10.5870   29.7637 O   0  0  0  0  0  0  0  0  0  0  0  0
    1.7612   -5.6483   26.7172 C   0  0  0  0  0  0  0  0  0  0  0  0
    0.2221   -9.8326   17.4055 C   0  0  0  0  0  0  0  0  0  0  0  0
    4.3850   -9.0730   28.6745 C   0  0  0  0  0  0  0  0  0  0  0  0
  1  7  4  0
  1 22  4  0
  2 17  4  0
  2 20  4  0
  2 28  4  0
  3  6  1  0
  3 19  1  0
  4 19  1  0
  4 26  1  0
  5 17  4  0
  5 18  4  0
  6 20  1  0
  6 26  1  0
  7 24  4  0
  8 15  4  0
  8 24  4  0
  9 14  4  0
  9 21  4  0
 10 12  4  0
 10 27  4  0
 11 12  4  0
 11 23  4  0
 13 23  4  0
 13 27  4  0
 14 20  4  0
 15 22  4  0
 16 18  4  0
 16 25  2  0
 16 28  4  0
 21 28  4  0
 24 27  1  0
M  END
$$$$

 Created by Python create_sdf_string function

 28 31  0  0  0  0  0  0  0  0999 V2000
   -1.0054  -13.0622   19.1198 C   0  0  0  0  0  0  0  0  0  0  0  0
    3.1478   -8.5360   28.5161 C   0  0  0  0  0  0  0  0  0  0  0  0
    0.5798   -7.1906   27.9330 C   0  0  0  0  0  0  0  0  0  0  0  0
    0.3978   -5.1561   26.6955 C   0  0  0  0  0  0  0  0  0  0  0  0
    2.3063  -10.0533   30.0125 C   0  0  0  0  0  0  0  0  0  0  0  0
    1.8591   -6.8254   27.4685 N   0  0  0  0  0  0  0  0  0  0  0  0
   -0.2167  -12.1055   18.5568 C   0  0  0  0  0  0  0  0  0  0  0  0
   -2.0661  -10.6994   18.1916 C   0  0  0  0  0  0  0  0  0  0  0  0
    5.2703   -7.5691   27.1123 C   0  0  0  0  0  0  0  0  0  0  0  0
    1.6204   -9.9887   17.2935 C   0  0  0  0  0  0  0  0  0  0  0  0
    1.8931   -7.9265   16.2047 C   0  0  0  0  0  0  0  0  0  0  0  0
    2.4396   -9.0801   16.7132 C   0  0  0  0  0  0  0  0  0  0  0  0
   -0.2575   -8.6234   16.8582 C   0  0  0  0  0  0  0  0  0  0  0  0
    4.0614   -7.0367   27.0106 N   0  0  0  0  0  0  0  0  0  0  0  0
   -2.9133  -11.6279   18.7578 C   0  0  0  0  0  0  0  0  0  0  0  0
    4.5688  -10.1291   29.5758 C   0  0  0  0  0  0  0  0  0  0  0  0
    2.1008   -9.0410   29.1852 N   0  0  0  0  0  0  0  0  0  0  0  0
    3.4829  -10.5697   30.2091 N   0  0  0  0  0  0  0  0  0  0  0  0
   -0.3363   -6.1172   27.5628 C   0  0  0  0  0  0  0  0  0  0  0  0
    3.0331   -7.4400   27.6362 C   0  0  0  0  0  0  0  0  0  0  0  0
    5.4553   -8.5933   27.9644 C   0  0  0  0  0  0  0  0  0  0  0  0
   -2.3870  -12.8440   19.2512 C   0  0  0  0  0  0  0  0  0  0  0  0
    0.5331   -7.6964   16.2751 C   0  0  0  0  0  0  0  0  0  0  0  0
   -0.6740  -10.8737   18.0482 C   0  0  0  0  0  0  0  0  0  0  0  0
    5.6751  -10.5870   29.7637 O   0  0  0  0  0  0  0  0  0  0  0  0
    1.7612   -5.6483   26.7172 C   0  0  0  0  0  0  0  0  0  0  0  0
    0.2221   -9.8326   17.4055 C   0  0  0  0  0  0  0  0  0  0  0  0
    4.3850   -9.0730   28.6745 C   0  0  0  0  0  0  0  0  0  0  0  0
  1  7  4  0
  1 22  4  0
  2 17  4  0
  2 20  4  0
  2 28  4  0
  3  6  1  0
  3 19  1  0
  4 19  1  0
  4 26  1  0
  5 17  4  0
  5 18  4  0
  6 20  1  0
  6 26  1  0
  7 24  4  0
  8 15  4  0
  8 24  4  0
  9 14  4  0
  9 21  4  0
 10 12  4  0
 10 27  4  0
 11 12  4  0
 11 23  4  0
 13 23  4  0
 13 27  4  0
 14 20  4  0
 15 22  4  0
 16 18  4  0
 16 25  2  0
 16 28  4  0
 21 28  4  0
 24 27  1  0
M  END
$$$$

 Created by Python create_sdf_string function

 28 31  0  0  0  0  0  0  0  0999 V2000
   -1.0054  -13.0622   19.1198 C   0  0  0  0  0  0  0  0  0  0  0  0
    3.1478   -8.5360   28.5161 C   0  0  0  0  0  0  0  0  0  0  0  0
    0.5798   -7.1906   27.9330 C   0  0  0  0  0  0  0  0  0  0  0  0
    0.3978   -5.1561   26.6955 C   0  0  0  0  0  0  0  0  0  0  0  0
    2.3063  -10.0533   30.0125 C   0  0  0  0  0  0  0  0  0  0  0  0
    1.8591   -6.8254   27.4685 N   0  0  0  0  0  0  0  0  0  0  0  0
   -0.2167  -12.1055   18.5568 C   0  0  0  0  0  0  0  0  0  0  0  0
   -2.0661  -10.6994   18.1916 C   0  0  0  0  0  0  0  0  0  0  0  0
    5.2703   -7.5691   27.1123 C   0  0  0  0  0  0  0  0  0  0  0  0
    1.6204   -9.9887   17.2935 C   0  0  0  0  0  0  0  0  0  0  0  0
    1.8931   -7.9265   16.2047 C   0  0  0  0  0  0  0  0  0  0  0  0
    2.4396   -9.0801   16.7132 C   0  0  0  0  0  0  0  0  0  0  0  0
   -0.2575   -8.6234   16.8582 C   0  0  0  0  0  0  0  0  0  0  0  0
    4.0614   -7.0367   27.0106 N   0  0  0  0  0  0  0  0  0  0  0  0
   -2.9133  -11.6279   18.7578 C   0  0  0  0  0  0  0  0  0  0  0  0
    4.5688  -10.1291   29.5758 C   0  0  0  0  0  0  0  0  0  0  0  0
    2.1008   -9.0410   29.1852 N   0  0  0  0  0  0  0  0  0  0  0  0
    3.4829  -10.5697   30.2091 N   0  0  0  0  0  0  0  0  0  0  0  0
   -0.3363   -6.1172   27.5628 C   0  0  0  0  0  0  0  0  0  0  0  0
    3.0331   -7.4400   27.6362 C   0  0  0  0  0  0  0  0  0  0  0  0
    5.4553   -8.5933   27.9644 C   0  0  0  0  0  0  0  0  0  0  0  0
   -2.3870  -12.8440   19.2512 C   0  0  0  0  0  0  0  0  0  0  0  0
    0.5331   -7.6964   16.2751 C   0  0  0  0  0  0  0  0  0  0  0  0
   -0.6740  -10.8737   18.0482 C   0  0  0  0  0  0  0  0  0  0  0  0
    5.6751  -10.5870   29.7637 O   0  0  0  0  0  0  0  0  0  0  0  0
    1.7612   -5.6483   26.7172 C   0  0  0  0  0  0  0  0  0  0  0  0
    0.2221   -9.8326   17.4055 C   0  0  0  0  0  0  0  0  0  0  0  0
    4.3850   -9.0730   28.6745 C   0  0  0  0  0  0  0  0  0  0  0  0
  1  7  4  0
  1 22  4  0
  2 17  4  0
  2 20  4  0
  2 28  4  0
  3  6  1  0
  3 19  1  0
  4 19  1  0
  4 26  1  0
  5 17  4  0
  5 18  4  0
  6 20  1  0
  6 26  1  0
  7 24  4  0
  8 15  4  0
  8 24  4  0
  9 14  4  0
  9 21  4  0
 10 12  4  0
 10 27  4  0
 11 12  4  0
 11 23  4  0
 13 23  4  0
 13 27  4  0
 14 20  4  0
 15 22  4  0
 16 18  4  0
 16 25  2  0
 16 28  4  0
 21 28  4  0
 24 27  1  0
M  END
$$$$

 Created by Python create_sdf_string function

 28 31  0  0  0  0  0  0  0  0999 V2000
   -1.0054  -13.0622   19.1198 C   0  0  0  0  0  0  0  0  0  0  0  0
    3.1478   -8.5360   28.5161 C   0  0  0  0  0  0  0  0  0  0  0  0
    0.5798   -7.1906   27.9330 C   0  0  0  0  0  0  0  0  0  0  0  0
    0.3978   -5.1561   26.6955 C   0  0  0  0  0  0  0  0  0  0  0  0
    2.3063  -10.0533   30.0125 C   0  0  0  0  0  0  0  0  0  0  0  0
    1.8591   -6.8254   27.4685 N   0  0  0  0  0  0  0  0  0  0  0  0
   -0.2167  -12.1055   18.5568 C   0  0  0  0  0  0  0  0  0  0  0  0
   -2.0661  -10.6994   18.1916 C   0  0  0  0  0  0  0  0  0  0  0  0
    5.2703   -7.5691   27.1123 C   0  0  0  0  0  0  0  0  0  0  0  0
    1.6204   -9.9887   17.2935 C   0  0  0  0  0  0  0  0  0  0  0  0
    1.8931   -7.9265   16.2047 C   0  0  0  0  0  0  0  0  0  0  0  0
    2.4396   -9.0801   16.7132 C   0  0  0  0  0  0  0  0  0  0  0  0
   -0.2575   -8.6234   16.8582 C   0  0  0  0  0  0  0  0  0  0  0  0
    4.0614   -7.0367   27.0106 N   0  0  0  0  0  0  0  0  0  0  0  0
   -2.9133  -11.6279   18.7578 C   0  0  0  0  0  0  0  0  0  0  0  0
    4.5688  -10.1291   29.5758 C   0  0  0  0  0  0  0  0  0  0  0  0
    2.1008   -9.0410   29.1852 N   0  0  0  0  0  0  0  0  0  0  0  0
    3.4829  -10.5697   30.2091 N   0  0  0  0  0  0  0  0  0  0  0  0
   -0.3363   -6.1172   27.5628 C   0  0  0  0  0  0  0  0  0  0  0  0
    3.0331   -7.4400   27.6362 C   0  0  0  0  0  0  0  0  0  0  0  0
    5.4553   -8.5933   27.9644 C   0  0  0  0  0  0  0  0  0  0  0  0
   -2.3870  -12.8440   19.2512 C   0  0  0  0  0  0  0  0  0  0  0  0
    0.5331   -7.6964   16.2751 C   0  0  0  0  0  0  0  0  0  0  0  0
   -0.6740  -10.8737   18.0482 C   0  0  0  0  0  0  0  0  0  0  0  0
    5.6751  -10.5870   29.7637 O   0  0  0  0  0  0  0  0  0  0  0  0
    1.7612   -5.6483   26.7172 C   0  0  0  0  0  0  0  0  0  0  0  0
    0.2221   -9.8326   17.4055 C   0  0  0  0  0  0  0  0  0  0  0  0
    4.3850   -9.0730   28.6745 C   0  0  0  0  0  0  0  0  0  0  0  0
  1  7  4  0
  1 22  4  0
  2 17  4  0
  2 20  4  0
  2 28  4  0
  3  6  1  0
  3 19  1  0
  4 19  1  0
  4 26  1  0
  5 17  4  0
  5 18  4  0
  6 20  1  0
  6 26  1  0
  7 24  4  0
  8 15  4  0
  8 24  4  0
  9 14  4  0
  9 21  4  0
 10 12  4  0
 10 27  4  0
 11 12  4  0
 11 23  4  0
 13 23  4  0
 13 27  4  0
 14 20  4  0
 15 22  4  0
 16 18  4  0
 16 25  2  0
 16 28  4  0
 21 28  4  0
 24 27  1  0
M  END
$$$$

 Created by Python create_sdf_string function

 28 31  0  0  0  0  0  0  0  0999 V2000
   -1.0054  -13.0622   19.1198 C   0  0  0  0  0  0  0  0  0  0  0  0
    3.1478   -8.5360   28.5161 C   0  0  0  0  0  0  0  0  0  0  0  0
    0.5798   -7.1906   27.9330 C   0  0  0  0  0  0  0  0  0  0  0  0
    0.3978   -5.1561   26.6955 C   0  0  0  0  0  0  0  0  0  0  0  0
    2.3063  -10.0533   30.0125 C   0  0  0  0  0  0  0  0  0  0  0  0
    1.8591   -6.8254   27.4685 N   0  0  0  0  0  0  0  0  0  0  0  0
   -0.2167  -12.1055   18.5568 C   0  0  0  0  0  0  0  0  0  0  0  0
   -2.0661  -10.6994   18.1916 C   0  0  0  0  0  0  0  0  0  0  0  0
    5.2703   -7.5691   27.1123 C   0  0  0  0  0  0  0  0  0  0  0  0
    1.6204   -9.9887   17.2935 C   0  0  0  0  0  0  0  0  0  0  0  0
    1.8931   -7.9265   16.2047 C   0  0  0  0  0  0  0  0  0  0  0  0
    2.4396   -9.0801   16.7132 C   0  0  0  0  0  0  0  0  0  0  0  0
   -0.2575   -8.6234   16.8582 C   0  0  0  0  0  0  0  0  0  0  0  0
    4.0614   -7.0367   27.0106 N   0  0  0  0  0  0  0  0  0  0  0  0
   -2.9133  -11.6279   18.7578 C   0  0  0  0  0  0  0  0  0  0  0  0
    4.5688  -10.1291   29.5758 C   0  0  0  0  0  0  0  0  0  0  0  0
    2.1008   -9.0410   29.1852 N   0  0  0  0  0  0  0  0  0  0  0  0
    3.4829  -10.5697   30.2091 N   0  0  0  0  0  0  0  0  0  0  0  0
   -0.3363   -6.1172   27.5628 C   0  0  0  0  0  0  0  0  0  0  0  0
    3.0331   -7.4400   27.6362 C   0  0  0  0  0  0  0  0  0  0  0  0
    5.4553   -8.5933   27.9644 C   0  0  0  0  0  0  0  0  0  0  0  0
   -2.3870  -12.8440   19.2512 C   0  0  0  0  0  0  0  0  0  0  0  0
    0.5331   -7.6964   16.2751 C   0  0  0  0  0  0  0  0  0  0  0  0
   -0.6740  -10.8737   18.0482 C   0  0  0  0  0  0  0  0  0  0  0  0
    5.6751  -10.5870   29.7637 O   0  0  0  0  0  0  0  0  0  0  0  0
    1.7612   -5.6483   26.7172 C   0  0  0  0  0  0  0  0  0  0  0  0
    0.2221   -9.8326   17.4055 C   0  0  0  0  0  0  0  0  0  0  0  0
    4.3850   -9.0730   28.6745 C   0  0  0  0  0  0  0  0  0  0  0  0
  1  7  4  0
  1 22  4  0
  2 17  4  0
  2 20  4  0
  2 28  4  0
  3  6  1  0
  3 19  1  0
  4 19  1  0
  4 26  1  0
  5 17  4  0
  5 18  4  0
  6 20  1  0
  6 26  1  0
  7 24  4  0
  8 15  4  0
  8 24  4  0
  9 14  4  0
  9 21  4  0
 10 12  4  0
 10 27  4  0
 11 12  4  0
 11 23  4  0
 13 23  4  0
 13 27  4  0
 14 20  4  0
 15 22  4  0
 16 18  4  0
 16 25  2  0
 16 28  4  0
 21 28  4  0
 24 27  1  0
M  END
$$$$

 Created by Python create_sdf_string function

 28 31  0  0  0  0  0  0  0  0999 V2000
   -1.0054  -13.0622   19.1198 C   0  0  0  0  0  0  0  0  0  0  0  0
    3.1478   -8.5360   28.5161 C   0  0  0  0  0  0  0  0  0  0  0  0
    0.5798   -7.1906   27.9330 C   0  0  0  0  0  0  0  0  0  0  0  0
    0.3978   -5.1561   26.6955 C   0  0  0  0  0  0  0  0  0  0  0  0
    2.3063  -10.0533   30.0125 C   0  0  0  0  0  0  0  0  0  0  0  0
    1.8591   -6.8254   27.4685 N   0  0  0  0  0  0  0  0  0  0  0  0
   -0.2167  -12.1055   18.5568 C   0  0  0  0  0  0  0  0  0  0  0  0
   -2.0661  -10.6994   18.1916 C   0  0  0  0  0  0  0  0  0  0  0  0
    5.2703   -7.5691   27.1123 C   0  0  0  0  0  0  0  0  0  0  0  0
    1.6204   -9.9887   17.2935 C   0  0  0  0  0  0  0  0  0  0  0  0
    1.8931   -7.9265   16.2047 C   0  0  0  0  0  0  0  0  0  0  0  0
    2.4396   -9.0801   16.7132 C   0  0  0  0  0  0  0  0  0  0  0  0
   -0.2575   -8.6234   16.8582 C   0  0  0  0  0  0  0  0  0  0  0  0
    4.0614   -7.0367   27.0106 N   0  0  0  0  0  0  0  0  0  0  0  0
   -2.9133  -11.6279   18.7578 C   0  0  0  0  0  0  0  0  0  0  0  0
    4.5688  -10.1291   29.5758 C   0  0  0  0  0  0  0  0  0  0  0  0
    2.1008   -9.0410   29.1852 N   0  0  0  0  0  0  0  0  0  0  0  0
    3.4829  -10.5697   30.2091 N   0  0  0  0  0  0  0  0  0  0  0  0
   -0.3363   -6.1172   27.5628 C   0  0  0  0  0  0  0  0  0  0  0  0
    3.0331   -7.4400   27.6362 C   0  0  0  0  0  0  0  0  0  0  0  0
    5.4553   -8.5933   27.9644 C   0  0  0  0  0  0  0  0  0  0  0  0
   -2.3870  -12.8440   19.2512 C   0  0  0  0  0  0  0  0  0  0  0  0
    0.5331   -7.6964   16.2751 C   0  0  0  0  0  0  0  0  0  0  0  0
   -0.6740  -10.8737   18.0482 C   0  0  0  0  0  0  0  0  0  0  0  0
    5.6751  -10.5870   29.7637 O   0  0  0  0  0  0  0  0  0  0  0  0
    1.7612   -5.6483   26.7172 C   0  0  0  0  0  0  0  0  0  0  0  0
    0.2221   -9.8326   17.4055 C   0  0  0  0  0  0  0  0  0  0  0  0
    4.3850   -9.0730   28.6745 C   0  0  0  0  0  0  0  0  0  0  0  0
  1  7  4  0
  1 22  4  0
  2 17  4  0
  2 20  4  0
  2 28  4  0
  3  6  1  0
  3 19  1  0
  4 19  1  0
  4 26  1  0
  5 17  4  0
  5 18  4  0
  6 20  1  0
  6 26  1  0
  7 24  4  0
  8 15  4  0
  8 24  4  0
  9 14  4  0
  9 21  4  0
 10 12  4  0
 10 27  4  0
 11 12  4  0
 11 23  4  0
 13 23  4  0
 13 27  4  0
 14 20  4  0
 15 22  4  0
 16 18  4  0
 16 25  2  0
 16 28  4  0
 21 28  4  0
 24 27  1  0
M  END
$$$$

 Created by Python create_sdf_string function

 28 31  0  0  0  0  0  0  0  0999 V2000
   -1.0054  -13.0622   19.1198 C   0  0  0  0  0  0  0  0  0  0  0  0
    3.1478   -8.5360   28.5161 C   0  0  0  0  0  0  0  0  0  0  0  0
    0.5798   -7.1906   27.9330 C   0  0  0  0  0  0  0  0  0  0  0  0
    0.3978   -5.1561   26.6955 C   0  0  0  0  0  0  0  0  0  0  0  0
    2.3063  -10.0533   30.0125 C   0  0  0  0  0  0  0  0  0  0  0  0
    1.8591   -6.8254   27.4685 N   0  0  0  0  0  0  0  0  0  0  0  0
   -0.2167  -12.1055   18.5568 C   0  0  0  0  0  0  0  0  0  0  0  0
   -2.0661  -10.6994   18.1916 C   0  0  0  0  0  0  0  0  0  0  0  0
    5.2703   -7.5691   27.1123 C   0  0  0  0  0  0  0  0  0  0  0  0
    1.6204   -9.9887   17.2935 C   0  0  0  0  0  0  0  0  0  0  0  0
    1.8931   -7.9265   16.2047 C   0  0  0  0  0  0  0  0  0  0  0  0
    2.4396   -9.0801   16.7132 C   0  0  0  0  0  0  0  0  0  0  0  0
   -0.2575   -8.6234   16.8582 C   0  0  0  0  0  0  0  0  0  0  0  0
    4.0614   -7.0367   27.0106 N   0  0  0  0  0  0  0  0  0  0  0  0
   -2.9133  -11.6279   18.7578 C   0  0  0  0  0  0  0  0  0  0  0  0
    4.5688  -10.1291   29.5758 C   0  0  0  0  0  0  0  0  0  0  0  0
    2.1008   -9.0410   29.1852 N   0  0  0  0  0  0  0  0  0  0  0  0
    3.4829  -10.5697   30.2091 N   0  0  0  0  0  0  0  0  0  0  0  0
   -0.3363   -6.1172   27.5628 C   0  0  0  0  0  0  0  0  0  0  0  0
    3.0331   -7.4400   27.6362 C   0  0  0  0  0  0  0  0  0  0  0  0
    5.4553   -8.5933   27.9644 C   0  0  0  0  0  0  0  0  0  0  0  0
   -2.3870  -12.8440   19.2512 C   0  0  0  0  0  0  0  0  0  0  0  0
    0.5331   -7.6964   16.2751 C   0  0  0  0  0  0  0  0  0  0  0  0
   -0.6740  -10.8737   18.0482 C   0  0  0  0  0  0  0  0  0  0  0  0
    5.6751  -10.5870   29.7637 O   0  0  0  0  0  0  0  0  0  0  0  0
    1.7612   -5.6483   26.7172 C   0  0  0  0  0  0  0  0  0  0  0  0
    0.2221   -9.8326   17.4055 C   0  0  0  0  0  0  0  0  0  0  0  0
    4.3850   -9.0730   28.6745 C   0  0  0  0  0  0  0  0  0  0  0  0
  1  7  4  0
  1 22  4  0
  2 17  4  0
  2 20  4  0
  2 28  4  0
  3  6  1  0
  3 19  1  0
  4 19  1  0
  4 26  1  0
  5 17  4  0
  5 18  4  0
  6 20  1  0
  6 26  1  0
  7 24  4  0
  8 15  4  0
  8 24  4  0
  9 14  4  0
  9 21  4  0
 10 12  4  0
 10 27  4  0
 11 12  4  0
 11 23  4  0
 13 23  4  0
 13 27  4  0
 14 20  4  0
 15 22  4  0
 16 18  4  0
 16 25  2  0
 16 28  4  0
 21 28  4  0
 24 27  1  0
M  END
$$$$

 Created by Python create_sdf_string function

 28 31  0  0  0  0  0  0  0  0999 V2000
   -1.0054  -13.0622   19.1198 C   0  0  0  0  0  0  0  0  0  0  0  0
    3.1478   -8.5360   28.5161 C   0  0  0  0  0  0  0  0  0  0  0  0
    0.5798   -7.1906   27.9330 C   0  0  0  0  0  0  0  0  0  0  0  0
    0.3978   -5.1561   26.6955 C   0  0  0  0  0  0  0  0  0  0  0  0
    2.3063  -10.0533   30.0125 C   0  0  0  0  0  0  0  0  0  0  0  0
    1.8591   -6.8254   27.4685 N   0  0  0  0  0  0  0  0  0  0  0  0
   -0.2167  -12.1055   18.5568 C   0  0  0  0  0  0  0  0  0  0  0  0
   -2.0661  -10.6994   18.1916 C   0  0  0  0  0  0  0  0  0  0  0  0
    5.2703   -7.5691   27.1123 C   0  0  0  0  0  0  0  0  0  0  0  0
    1.6204   -9.9887   17.2935 C   0  0  0  0  0  0  0  0  0  0  0  0
    1.8931   -7.9265   16.2047 C   0  0  0  0  0  0  0  0  0  0  0  0
    2.4396   -9.0801   16.7132 C   0  0  0  0  0  0  0  0  0  0  0  0
   -0.2575   -8.6234   16.8582 C   0  0  0  0  0  0  0  0  0  0  0  0
    4.0614   -7.0367   27.0106 N   0  0  0  0  0  0  0  0  0  0  0  0
   -2.9133  -11.6279   18.7578 C   0  0  0  0  0  0  0  0  0  0  0  0
    4.5688  -10.1291   29.5758 C   0  0  0  0  0  0  0  0  0  0  0  0
    2.1008   -9.0410   29.1852 N   0  0  0  0  0  0  0  0  0  0  0  0
    3.4829  -10.5697   30.2091 N   0  0  0  0  0  0  0  0  0  0  0  0
   -0.3363   -6.1172   27.5628 C   0  0  0  0  0  0  0  0  0  0  0  0
    3.0331   -7.4400   27.6362 C   0  0  0  0  0  0  0  0  0  0  0  0
    5.4553   -8.5933   27.9644 C   0  0  0  0  0  0  0  0  0  0  0  0
   -2.3870  -12.8440   19.2512 C   0  0  0  0  0  0  0  0  0  0  0  0
    0.5331   -7.6964   16.2751 C   0  0  0  0  0  0  0  0  0  0  0  0
   -0.6740  -10.8737   18.0482 C   0  0  0  0  0  0  0  0  0  0  0  0
    5.6751  -10.5870   29.7637 O   0  0  0  0  0  0  0  0  0  0  0  0
    1.7612   -5.6483   26.7172 C   0  0  0  0  0  0  0  0  0  0  0  0
    0.2221   -9.8326   17.4055 C   0  0  0  0  0  0  0  0  0  0  0  0
    4.3850   -9.0730   28.6745 C   0  0  0  0  0  0  0  0  0  0  0  0
  1  7  4  0
  1 22  4  0
  2 17  4  0
  2 20  4  0
  2 28  4  0
  3  6  1  0
  3 19  1  0
  4 19  1  0
  4 26  1  0
  5 17  4  0
  5 18  4  0
  6 20  1  0
  6 26  1  0
  7 24  4  0
  8 15  4  0
  8 24  4  0
  9 14  4  0
  9 21  4  0
 10 12  4  0
 10 27  4  0
 11 12  4  0
 11 23  4  0
 13 23  4  0
 13 27  4  0
 14 20  4  0
 15 22  4  0
 16 18  4  0
 16 25  2  0
 16 28  4  0
 21 28  4  0
 24 27  1  0
M  END
$$$$

 Created by Python create_sdf_string function

 28 31  0  0  0  0  0  0  0  0999 V2000
   -1.0054  -13.0622   19.1198 C   0  0  0  0  0  0  0  0  0  0  0  0
    3.1478   -8.5360   28.5161 C   0  0  0  0  0  0  0  0  0  0  0  0
    0.5798   -7.1906   27.9330 C   0  0  0  0  0  0  0  0  0  0  0  0
    0.3978   -5.1561   26.6955 C   0  0  0  0  0  0  0  0  0  0  0  0
    2.3063  -10.0533   30.0125 C   0  0  0  0  0  0  0  0  0  0  0  0
    1.8591   -6.8254   27.4685 N   0  0  0  0  0  0  0  0  0  0  0  0
   -0.2167  -12.1055   18.5568 C   0  0  0  0  0  0  0  0  0  0  0  0
   -2.0661  -10.6994   18.1916 C   0  0  0  0  0  0  0  0  0  0  0  0
    5.2703   -7.5691   27.1123 C   0  0  0  0  0  0  0  0  0  0  0  0
    1.6204   -9.9887   17.2935 C   0  0  0  0  0  0  0  0  0  0  0  0
    1.8931   -7.9265   16.2047 C   0  0  0  0  0  0  0  0  0  0  0  0
    2.4396   -9.0801   16.7132 C   0  0  0  0  0  0  0  0  0  0  0  0
   -0.2575   -8.6234   16.8582 C   0  0  0  0  0  0  0  0  0  0  0  0
    4.0614   -7.0367   27.0106 N   0  0  0  0  0  0  0  0  0  0  0  0
   -2.9133  -11.6279   18.7578 C   0  0  0  0  0  0  0  0  0  0  0  0
    4.5688  -10.1291   29.5758 C   0  0  0  0  0  0  0  0  0  0  0  0
    2.1008   -9.0410   29.1852 N   0  0  0  0  0  0  0  0  0  0  0  0
    3.4829  -10.5697   30.2091 N   0  0  0  0  0  0  0  0  0  0  0  0
   -0.3363   -6.1172   27.5628 C   0  0  0  0  0  0  0  0  0  0  0  0
    3.0331   -7.4400   27.6362 C   0  0  0  0  0  0  0  0  0  0  0  0
    5.4553   -8.5933   27.9644 C   0  0  0  0  0  0  0  0  0  0  0  0
   -2.3870  -12.8440   19.2512 C   0  0  0  0  0  0  0  0  0  0  0  0
    0.5331   -7.6964   16.2751 C   0  0  0  0  0  0  0  0  0  0  0  0
   -0.6740  -10.8737   18.0482 C   0  0  0  0  0  0  0  0  0  0  0  0
    5.6751  -10.5870   29.7637 O   0  0  0  0  0  0  0  0  0  0  0  0
    1.7612   -5.6483   26.7172 C   0  0  0  0  0  0  0  0  0  0  0  0
    0.2221   -9.8326   17.4055 C   0  0  0  0  0  0  0  0  0  0  0  0
    4.3850   -9.0730   28.6745 C   0  0  0  0  0  0  0  0  0  0  0  0
  1  7  4  0
  1 22  4  0
  2 17  4  0
  2 20  4  0
  2 28  4  0
  3  6  1  0
  3 19  1  0
  4 19  1  0
  4 26  1  0
  5 17  4  0
  5 18  4  0
  6 20  1  0
  6 26  1  0
  7 24  4  0
  8 15  4  0
  8 24  4  0
  9 14  4  0
  9 21  4  0
 10 12  4  0
 10 27  4  0
 11 12  4  0
 11 23  4  0
 13 23  4  0
 13 27  4  0
 14 20  4  0
 15 22  4  0
 16 18  4  0
 16 25  2  0
 16 28  4  0
 21 28  4  0
 24 27  1  0
M  END
$$$$

 Created by Python create_sdf_string function

 28 31  0  0  0  0  0  0  0  0999 V2000
   -1.0054  -13.0622   19.1198 C   0  0  0  0  0  0  0  0  0  0  0  0
    3.1478   -8.5360   28.5161 C   0  0  0  0  0  0  0  0  0  0  0  0
    0.5798   -7.1906   27.9330 C   0  0  0  0  0  0  0  0  0  0  0  0
    0.3978   -5.1561   26.6955 C   0  0  0  0  0  0  0  0  0  0  0  0
    2.3063  -10.0533   30.0125 C   0  0  0  0  0  0  0  0  0  0  0  0
    1.8591   -6.8254   27.4685 N   0  0  0  0  0  0  0  0  0  0  0  0
   -0.2167  -12.1055   18.5568 C   0  0  0  0  0  0  0  0  0  0  0  0
   -2.0661  -10.6994   18.1916 C   0  0  0  0  0  0  0  0  0  0  0  0
    5.2703   -7.5691   27.1123 C   0  0  0  0  0  0  0  0  0  0  0  0
    1.6204   -9.9887   17.2935 C   0  0  0  0  0  0  0  0  0  0  0  0
    1.8931   -7.9265   16.2047 C   0  0  0  0  0  0  0  0  0  0  0  0
    2.4396   -9.0801   16.7132 C   0  0  0  0  0  0  0  0  0  0  0  0
   -0.2575   -8.6234   16.8582 C   0  0  0  0  0  0  0  0  0  0  0  0
    4.0614   -7.0367   27.0106 N   0  0  0  0  0  0  0  0  0  0  0  0
   -2.9133  -11.6279   18.7578 C   0  0  0  0  0  0  0  0  0  0  0  0
    4.5688  -10.1291   29.5758 C   0  0  0  0  0  0  0  0  0  0  0  0
    2.1008   -9.0410   29.1852 N   0  0  0  0  0  0  0  0  0  0  0  0
    3.4829  -10.5697   30.2091 N   0  0  0  0  0  0  0  0  0  0  0  0
   -0.3363   -6.1172   27.5628 C   0  0  0  0  0  0  0  0  0  0  0  0
    3.0331   -7.4400   27.6362 C   0  0  0  0  0  0  0  0  0  0  0  0
    5.4553   -8.5933   27.9644 C   0  0  0  0  0  0  0  0  0  0  0  0
   -2.3870  -12.8440   19.2512 C   0  0  0  0  0  0  0  0  0  0  0  0
    0.5331   -7.6964   16.2751 C   0  0  0  0  0  0  0  0  0  0  0  0
   -0.6740  -10.8737   18.0482 C   0  0  0  0  0  0  0  0  0  0  0  0
    5.6751  -10.5870   29.7637 O   0  0  0  0  0  0  0  0  0  0  0  0
    1.7612   -5.6483   26.7172 C   0  0  0  0  0  0  0  0  0  0  0  0
    0.2221   -9.8326   17.4055 C   0  0  0  0  0  0  0  0  0  0  0  0
    4.3850   -9.0730   28.6745 C   0  0  0  0  0  0  0  0  0  0  0  0
  1  7  4  0
  1 22  4  0
  2 17  4  0
  2 20  4  0
  2 28  4  0
  3  6  1  0
  3 19  1  0
  4 19  1  0
  4 26  1  0
  5 17  4  0
  5 18  4  0
  6 20  1  0
  6 26  1  0
  7 24  4  0
  8 15  4  0
  8 24  4  0
  9 14  4  0
  9 21  4  0
 10 12  4  0
 10 27  4  0
 11 12  4  0
 11 23  4  0
 13 23  4  0
 13 27  4  0
 14 20  4  0
 15 22  4  0
 16 18  4  0
 16 25  2  0
 16 28  4  0
 21 28  4  0
 24 27  1  0
M  END
$$$$

 Created by Python create_sdf_string function

 28 31  0  0  0  0  0  0  0  0999 V2000
   -1.0054  -13.0622   19.1198 C   0  0  0  0  0  0  0  0  0  0  0  0
    3.1478   -8.5360   28.5161 C   0  0  0  0  0  0  0  0  0  0  0  0
    0.5798   -7.1906   27.9330 C   0  0  0  0  0  0  0  0  0  0  0  0
    0.3978   -5.1561   26.6955 C   0  0  0  0  0  0  0  0  0  0  0  0
    2.3063  -10.0533   30.0125 C   0  0  0  0  0  0  0  0  0  0  0  0
    1.8591   -6.8254   27.4685 N   0  0  0  0  0  0  0  0  0  0  0  0
   -0.2167  -12.1055   18.5568 C   0  0  0  0  0  0  0  0  0  0  0  0
   -2.0661  -10.6994   18.1916 C   0  0  0  0  0  0  0  0  0  0  0  0
    5.2703   -7.5691   27.1123 C   0  0  0  0  0  0  0  0  0  0  0  0
    1.6204   -9.9887   17.2935 C   0  0  0  0  0  0  0  0  0  0  0  0
    1.8931   -7.9265   16.2047 C   0  0  0  0  0  0  0  0  0  0  0  0
    2.4396   -9.0801   16.7132 C   0  0  0  0  0  0  0  0  0  0  0  0
   -0.2575   -8.6234   16.8582 C   0  0  0  0  0  0  0  0  0  0  0  0
    4.0614   -7.0367   27.0106 N   0  0  0  0  0  0  0  0  0  0  0  0
   -2.9133  -11.6279   18.7578 C   0  0  0  0  0  0  0  0  0  0  0  0
    4.5688  -10.1291   29.5758 C   0  0  0  0  0  0  0  0  0  0  0  0
    2.1008   -9.0410   29.1852 N   0  0  0  0  0  0  0  0  0  0  0  0
    3.4829  -10.5697   30.2091 N   0  0  0  0  0  0  0  0  0  0  0  0
   -0.3363   -6.1172   27.5628 C   0  0  0  0  0  0  0  0  0  0  0  0
    3.0331   -7.4400   27.6362 C   0  0  0  0  0  0  0  0  0  0  0  0
    5.4553   -8.5933   27.9644 C   0  0  0  0  0  0  0  0  0  0  0  0
   -2.3870  -12.8440   19.2512 C   0  0  0  0  0  0  0  0  0  0  0  0
    0.5331   -7.6964   16.2751 C   0  0  0  0  0  0  0  0  0  0  0  0
   -0.6740  -10.8737   18.0482 C   0  0  0  0  0  0  0  0  0  0  0  0
    5.6751  -10.5870   29.7637 O   0  0  0  0  0  0  0  0  0  0  0  0
    1.7612   -5.6483   26.7172 C   0  0  0  0  0  0  0  0  0  0  0  0
    0.2221   -9.8326   17.4055 C   0  0  0  0  0  0  0  0  0  0  0  0
    4.3850   -9.0730   28.6745 C   0  0  0  0  0  0  0  0  0  0  0  0
  1  7  4  0
  1 22  4  0
  2 17  4  0
  2 20  4  0
  2 28  4  0
  3  6  1  0
  3 19  1  0
  4 19  1  0
  4 26  1  0
  5 17  4  0
  5 18  4  0
  6 20  1  0
  6 26  1  0
  7 24  4  0
  8 15  4  0
  8 24  4  0
  9 14  4  0
  9 21  4  0
 10 12  4  0
 10 27  4  0
 11 12  4  0
 11 23  4  0
 13 23  4  0
 13 27  4  0
 14 20  4  0
 15 22  4  0
 16 18  4  0
 16 25  2  0
 16 28  4  0
 21 28  4  0
 24 27  1  0
M  END
$$$$

 Created by Python create_sdf_string function

 28 31  0  0  0  0  0  0  0  0999 V2000
   -1.0054  -13.0622   19.1198 C   0  0  0  0  0  0  0  0  0  0  0  0
    3.1478   -8.5360   28.5161 C   0  0  0  0  0  0  0  0  0  0  0  0
    0.5798   -7.1906   27.9330 C   0  0  0  0  0  0  0  0  0  0  0  0
    0.3978   -5.1561   26.6955 C   0  0  0  0  0  0  0  0  0  0  0  0
    2.3063  -10.0533   30.0125 C   0  0  0  0  0  0  0  0  0  0  0  0
    1.8591   -6.8254   27.4685 N   0  0  0  0  0  0  0  0  0  0  0  0
   -0.2167  -12.1055   18.5568 C   0  0  0  0  0  0  0  0  0  0  0  0
   -2.0661  -10.6994   18.1916 C   0  0  0  0  0  0  0  0  0  0  0  0
    5.2703   -7.5691   27.1123 C   0  0  0  0  0  0  0  0  0  0  0  0
    1.6204   -9.9887   17.2935 C   0  0  0  0  0  0  0  0  0  0  0  0
    1.8931   -7.9265   16.2047 C   0  0  0  0  0  0  0  0  0  0  0  0
    2.4396   -9.0801   16.7132 C   0  0  0  0  0  0  0  0  0  0  0  0
   -0.2575   -8.6234   16.8582 C   0  0  0  0  0  0  0  0  0  0  0  0
    4.0614   -7.0367   27.0106 N   0  0  0  0  0  0  0  0  0  0  0  0
   -2.9133  -11.6279   18.7578 C   0  0  0  0  0  0  0  0  0  0  0  0
    4.5688  -10.1291   29.5758 C   0  0  0  0  0  0  0  0  0  0  0  0
    2.1008   -9.0410   29.1852 N   0  0  0  0  0  0  0  0  0  0  0  0
    3.4829  -10.5697   30.2091 N   0  0  0  0  0  0  0  0  0  0  0  0
   -0.3363   -6.1172   27.5628 C   0  0  0  0  0  0  0  0  0  0  0  0
    3.0331   -7.4400   27.6362 C   0  0  0  0  0  0  0  0  0  0  0  0
    5.4553   -8.5933   27.9644 C   0  0  0  0  0  0  0  0  0  0  0  0
   -2.3870  -12.8440   19.2512 C   0  0  0  0  0  0  0  0  0  0  0  0
    0.5331   -7.6964   16.2751 C   0  0  0  0  0  0  0  0  0  0  0  0
   -0.6740  -10.8737   18.0482 C   0  0  0  0  0  0  0  0  0  0  0  0
    5.6751  -10.5870   29.7637 O   0  0  0  0  0  0  0  0  0  0  0  0
    1.7612   -5.6483   26.7172 C   0  0  0  0  0  0  0  0  0  0  0  0
    0.2221   -9.8326   17.4055 C   0  0  0  0  0  0  0  0  0  0  0  0
    4.3850   -9.0730   28.6745 C   0  0  0  0  0  0  0  0  0  0  0  0
  1  7  4  0
  1 22  4  0
  2 17  4  0
  2 20  4  0
  2 28  4  0
  3  6  1  0
  3 19  1  0
  4 19  1  0
  4 26  1  0
  5 17  4  0
  5 18  4  0
  6 20  1  0
  6 26  1  0
  7 24  4  0
  8 15  4  0
  8 24  4  0
  9 14  4  0
  9 21  4  0
 10 12  4  0
 10 27  4  0
 11 12  4  0
 11 23  4  0
 13 23  4  0
 13 27  4  0
 14 20  4  0
 15 22  4  0
 16 18  4  0
 16 25  2  0
 16 28  4  0
 21 28  4  0
 24 27  1  0
M  END
$$$$

 Created by Python create_sdf_string function

 28 31  0  0  0  0  0  0  0  0999 V2000
   -1.0054  -13.0622   19.1198 C   0  0  0  0  0  0  0  0  0  0  0  0
    3.1478   -8.5360   28.5161 C   0  0  0  0  0  0  0  0  0  0  0  0
    0.5798   -7.1906   27.9330 C   0  0  0  0  0  0  0  0  0  0  0  0
    0.3978   -5.1561   26.6955 C   0  0  0  0  0  0  0  0  0  0  0  0
    2.3063  -10.0533   30.0125 C   0  0  0  0  0  0  0  0  0  0  0  0
    1.8591   -6.8254   27.4685 N   0  0  0  0  0  0  0  0  0  0  0  0
   -0.2167  -12.1055   18.5568 C   0  0  0  0  0  0  0  0  0  0  0  0
   -2.0661  -10.6994   18.1916 C   0  0  0  0  0  0  0  0  0  0  0  0
    5.2703   -7.5691   27.1123 C   0  0  0  0  0  0  0  0  0  0  0  0
    1.6204   -9.9887   17.2935 C   0  0  0  0  0  0  0  0  0  0  0  0
    1.8931   -7.9265   16.2047 C   0  0  0  0  0  0  0  0  0  0  0  0
    2.4396   -9.0801   16.7132 C   0  0  0  0  0  0  0  0  0  0  0  0
   -0.2575   -8.6234   16.8582 C   0  0  0  0  0  0  0  0  0  0  0  0
    4.0614   -7.0367   27.0106 N   0  0  0  0  0  0  0  0  0  0  0  0
   -2.9133  -11.6279   18.7578 C   0  0  0  0  0  0  0  0  0  0  0  0
    4.5688  -10.1291   29.5758 C   0  0  0  0  0  0  0  0  0  0  0  0
    2.1008   -9.0410   29.1852 N   0  0  0  0  0  0  0  0  0  0  0  0
    3.4829  -10.5697   30.2091 N   0  0  0  0  0  0  0  0  0  0  0  0
   -0.3363   -6.1172   27.5628 C   0  0  0  0  0  0  0  0  0  0  0  0
    3.0331   -7.4400   27.6362 C   0  0  0  0  0  0  0  0  0  0  0  0
    5.4553   -8.5933   27.9644 C   0  0  0  0  0  0  0  0  0  0  0  0
   -2.3870  -12.8440   19.2512 C   0  0  0  0  0  0  0  0  0  0  0  0
    0.5331   -7.6964   16.2751 C   0  0  0  0  0  0  0  0  0  0  0  0
   -0.6740  -10.8737   18.0482 C   0  0  0  0  0  0  0  0  0  0  0  0
    5.6751  -10.5870   29.7637 O   0  0  0  0  0  0  0  0  0  0  0  0
    1.7612   -5.6483   26.7172 C   0  0  0  0  0  0  0  0  0  0  0  0
    0.2221   -9.8326   17.4055 C   0  0  0  0  0  0  0  0  0  0  0  0
    4.3850   -9.0730   28.6745 C   0  0  0  0  0  0  0  0  0  0  0  0
  1  7  4  0
  1 22  4  0
  2 17  4  0
  2 20  4  0
  2 28  4  0
  3  6  1  0
  3 19  1  0
  4 19  1  0
  4 26  1  0
  5 17  4  0
  5 18  4  0
  6 20  1  0
  6 26  1  0
  7 24  4  0
  8 15  4  0
  8 24  4  0
  9 14  4  0
  9 21  4  0
 10 12  4  0
 10 27  4  0
 11 12  4  0
 11 23  4  0
 13 23  4  0
 13 27  4  0
 14 20  4  0
 15 22  4  0
 16 18  4  0
 16 25  2  0
 16 28  4  0
 21 28  4  0
 24 27  1  0
M  END
$$$$

 Created by Python create_sdf_string function

 28 31  0  0  0  0  0  0  0  0999 V2000
   -1.0054  -13.0622   19.1198 C   0  0  0  0  0  0  0  0  0  0  0  0
    3.1478   -8.5360   28.5161 C   0  0  0  0  0  0  0  0  0  0  0  0
    0.5798   -7.1906   27.9330 C   0  0  0  0  0  0  0  0  0  0  0  0
    0.3978   -5.1561   26.6955 C   0  0  0  0  0  0  0  0  0  0  0  0
    2.3063  -10.0533   30.0125 C   0  0  0  0  0  0  0  0  0  0  0  0
    1.8591   -6.8254   27.4685 N   0  0  0  0  0  0  0  0  0  0  0  0
   -0.2167  -12.1055   18.5568 C   0  0  0  0  0  0  0  0  0  0  0  0
   -2.0661  -10.6994   18.1916 C   0  0  0  0  0  0  0  0  0  0  0  0
    5.2703   -7.5691   27.1123 C   0  0  0  0  0  0  0  0  0  0  0  0
    1.6204   -9.9887   17.2935 C   0  0  0  0  0  0  0  0  0  0  0  0
    1.8931   -7.9265   16.2047 C   0  0  0  0  0  0  0  0  0  0  0  0
    2.4396   -9.0801   16.7132 C   0  0  0  0  0  0  0  0  0  0  0  0
   -0.2575   -8.6234   16.8582 C   0  0  0  0  0  0  0  0  0  0  0  0
    4.0614   -7.0367   27.0106 N   0  0  0  0  0  0  0  0  0  0  0  0
   -2.9133  -11.6279   18.7578 C   0  0  0  0  0  0  0  0  0  0  0  0
    4.5688  -10.1291   29.5758 C   0  0  0  0  0  0  0  0  0  0  0  0
    2.1008   -9.0410   29.1852 N   0  0  0  0  0  0  0  0  0  0  0  0
    3.4829  -10.5697   30.2091 N   0  0  0  0  0  0  0  0  0  0  0  0
   -0.3363   -6.1172   27.5628 C   0  0  0  0  0  0  0  0  0  0  0  0
    3.0331   -7.4400   27.6362 C   0  0  0  0  0  0  0  0  0  0  0  0
    5.4553   -8.5933   27.9644 C   0  0  0  0  0  0  0  0  0  0  0  0
   -2.3870  -12.8440   19.2512 C   0  0  0  0  0  0  0  0  0  0  0  0
    0.5331   -7.6964   16.2751 C   0  0  0  0  0  0  0  0  0  0  0  0
   -0.6740  -10.8737   18.0482 C   0  0  0  0  0  0  0  0  0  0  0  0
    5.6751  -10.5870   29.7637 O   0  0  0  0  0  0  0  0  0  0  0  0
    1.7612   -5.6483   26.7172 C   0  0  0  0  0  0  0  0  0  0  0  0
    0.2221   -9.8326   17.4055 C   0  0  0  0  0  0  0  0  0  0  0  0
    4.3850   -9.0730   28.6745 C   0  0  0  0  0  0  0  0  0  0  0  0
  1  7  4  0
  1 22  4  0
  2 17  4  0
  2 20  4  0
  2 28  4  0
  3  6  1  0
  3 19  1  0
  4 19  1  0
  4 26  1  0
  5 17  4  0
  5 18  4  0
  6 20  1  0
  6 26  1  0
  7 24  4  0
  8 15  4  0
  8 24  4  0
  9 14  4  0
  9 21  4  0
 10 12  4  0
 10 27  4  0
 11 12  4  0
 11 23  4  0
 13 23  4  0
 13 27  4  0
 14 20  4  0
 15 22  4  0
 16 18  4  0
 16 25  2  0
 16 28  4  0
 21 28  4  0
 24 27  1  0
M  END
$$$$

 Created by Python create_sdf_string function

 28 31  0  0  0  0  0  0  0  0999 V2000
   -1.0054  -13.0622   19.1198 C   0  0  0  0  0  0  0  0  0  0  0  0
    3.1478   -8.5360   28.5161 C   0  0  0  0  0  0  0  0  0  0  0  0
    0.5798   -7.1906   27.9330 C   0  0  0  0  0  0  0  0  0  0  0  0
    0.3978   -5.1561   26.6955 C   0  0  0  0  0  0  0  0  0  0  0  0
    2.3063  -10.0533   30.0125 C   0  0  0  0  0  0  0  0  0  0  0  0
    1.8591   -6.8254   27.4685 N   0  0  0  0  0  0  0  0  0  0  0  0
   -0.2167  -12.1055   18.5568 C   0  0  0  0  0  0  0  0  0  0  0  0
   -2.0661  -10.6994   18.1916 C   0  0  0  0  0  0  0  0  0  0  0  0
    5.2703   -7.5691   27.1123 C   0  0  0  0  0  0  0  0  0  0  0  0
    1.6204   -9.9887   17.2935 C   0  0  0  0  0  0  0  0  0  0  0  0
    1.8931   -7.9265   16.2047 C   0  0  0  0  0  0  0  0  0  0  0  0
    2.4396   -9.0801   16.7132 C   0  0  0  0  0  0  0  0  0  0  0  0
   -0.2575   -8.6234   16.8582 C   0  0  0  0  0  0  0  0  0  0  0  0
    4.0614   -7.0367   27.0106 N   0  0  0  0  0  0  0  0  0  0  0  0
   -2.9133  -11.6279   18.7578 C   0  0  0  0  0  0  0  0  0  0  0  0
    4.5688  -10.1291   29.5758 C   0  0  0  0  0  0  0  0  0  0  0  0
    2.1008   -9.0410   29.1852 N   0  0  0  0  0  0  0  0  0  0  0  0
    3.4829  -10.5697   30.2091 N   0  0  0  0  0  0  0  0  0  0  0  0
   -0.3363   -6.1172   27.5628 C   0  0  0  0  0  0  0  0  0  0  0  0
    3.0331   -7.4400   27.6362 C   0  0  0  0  0  0  0  0  0  0  0  0
    5.4553   -8.5933   27.9644 C   0  0  0  0  0  0  0  0  0  0  0  0
   -2.3870  -12.8440   19.2512 C   0  0  0  0  0  0  0  0  0  0  0  0
    0.5331   -7.6964   16.2751 C   0  0  0  0  0  0  0  0  0  0  0  0
   -0.6740  -10.8737   18.0482 C   0  0  0  0  0  0  0  0  0  0  0  0
    5.6751  -10.5870   29.7637 O   0  0  0  0  0  0  0  0  0  0  0  0
    1.7612   -5.6483   26.7172 C   0  0  0  0  0  0  0  0  0  0  0  0
    0.2221   -9.8326   17.4055 C   0  0  0  0  0  0  0  0  0  0  0  0
    4.3850   -9.0730   28.6745 C   0  0  0  0  0  0  0  0  0  0  0  0
  1  7  4  0
  1 22  4  0
  2 17  4  0
  2 20  4  0
  2 28  4  0
  3  6  1  0
  3 19  1  0
  4 19  1  0
  4 26  1  0
  5 17  4  0
  5 18  4  0
  6 20  1  0
  6 26  1  0
  7 24  4  0
  8 15  4  0
  8 24  4  0
  9 14  4  0
  9 21  4  0
 10 12  4  0
 10 27  4  0
 11 12  4  0
 11 23  4  0
 13 23  4  0
 13 27  4  0
 14 20  4  0
 15 22  4  0
 16 18  4  0
 16 25  2  0
 16 28  4  0
 21 28  4  0
 24 27  1  0
M  END
$$$$

 Created by Python create_sdf_string function

 28 31  0  0  0  0  0  0  0  0999 V2000
   -1.0054  -13.0622   19.1198 C   0  0  0  0  0  0  0  0  0  0  0  0
    3.1478   -8.5360   28.5161 C   0  0  0  0  0  0  0  0  0  0  0  0
    0.5798   -7.1906   27.9330 C   0  0  0  0  0  0  0  0  0  0  0  0
    0.3978   -5.1561   26.6955 C   0  0  0  0  0  0  0  0  0  0  0  0
    2.3063  -10.0533   30.0125 C   0  0  0  0  0  0  0  0  0  0  0  0
    1.8591   -6.8254   27.4685 N   0  0  0  0  0  0  0  0  0  0  0  0
   -0.2167  -12.1055   18.5568 C   0  0  0  0  0  0  0  0  0  0  0  0
   -2.0661  -10.6994   18.1916 C   0  0  0  0  0  0  0  0  0  0  0  0
    5.2703   -7.5691   27.1123 C   0  0  0  0  0  0  0  0  0  0  0  0
    1.6204   -9.9887   17.2935 C   0  0  0  0  0  0  0  0  0  0  0  0
    1.8931   -7.9265   16.2047 C   0  0  0  0  0  0  0  0  0  0  0  0
    2.4396   -9.0801   16.7132 C   0  0  0  0  0  0  0  0  0  0  0  0
   -0.2575   -8.6234   16.8582 C   0  0  0  0  0  0  0  0  0  0  0  0
    4.0614   -7.0367   27.0106 N   0  0  0  0  0  0  0  0  0  0  0  0
   -2.9133  -11.6279   18.7578 C   0  0  0  0  0  0  0  0  0  0  0  0
    4.5688  -10.1291   29.5758 C   0  0  0  0  0  0  0  0  0  0  0  0
    2.1008   -9.0410   29.1852 N   0  0  0  0  0  0  0  0  0  0  0  0
    3.4829  -10.5697   30.2091 N   0  0  0  0  0  0  0  0  0  0  0  0
   -0.3363   -6.1172   27.5628 C   0  0  0  0  0  0  0  0  0  0  0  0
    3.0331   -7.4400   27.6362 C   0  0  0  0  0  0  0  0  0  0  0  0
    5.4553   -8.5933   27.9644 C   0  0  0  0  0  0  0  0  0  0  0  0
   -2.3870  -12.8440   19.2512 C   0  0  0  0  0  0  0  0  0  0  0  0
    0.5331   -7.6964   16.2751 C   0  0  0  0  0  0  0  0  0  0  0  0
   -0.6740  -10.8737   18.0482 C   0  0  0  0  0  0  0  0  0  0  0  0
    5.6751  -10.5870   29.7637 O   0  0  0  0  0  0  0  0  0  0  0  0
    1.7612   -5.6483   26.7172 C   0  0  0  0  0  0  0  0  0  0  0  0
    0.2221   -9.8326   17.4055 C   0  0  0  0  0  0  0  0  0  0  0  0
    4.3850   -9.0730   28.6745 C   0  0  0  0  0  0  0  0  0  0  0  0
  1  7  4  0
  1 22  4  0
  2 17  4  0
  2 20  4  0
  2 28  4  0
  3  6  1  0
  3 19  1  0
  4 19  1  0
  4 26  1  0
  5 17  4  0
  5 18  4  0
  6 20  1  0
  6 26  1  0
  7 24  4  0
  8 15  4  0
  8 24  4  0
  9 14  4  0
  9 21  4  0
 10 12  4  0
 10 27  4  0
 11 12  4  0
 11 23  4  0
 13 23  4  0
 13 27  4  0
 14 20  4  0
 15 22  4  0
 16 18  4  0
 16 25  2  0
 16 28  4  0
 21 28  4  0
 24 27  1  0
M  END
$$$$

 Created by Python create_sdf_string function

 28 31  0  0  0  0  0  0  0  0999 V2000
   -1.0054  -13.0622   19.1198 C   0  0  0  0  0  0  0  0  0  0  0  0
    3.1478   -8.5360   28.5161 C   0  0  0  0  0  0  0  0  0  0  0  0
    0.5798   -7.1906   27.9330 C   0  0  0  0  0  0  0  0  0  0  0  0
    0.3978   -5.1561   26.6955 C   0  0  0  0  0  0  0  0  0  0  0  0
    2.3063  -10.0533   30.0125 C   0  0  0  0  0  0  0  0  0  0  0  0
    1.8591   -6.8254   27.4685 N   0  0  0  0  0  0  0  0  0  0  0  0
   -0.2167  -12.1055   18.5568 C   0  0  0  0  0  0  0  0  0  0  0  0
   -2.0661  -10.6994   18.1916 C   0  0  0  0  0  0  0  0  0  0  0  0
    5.2703   -7.5691   27.1123 C   0  0  0  0  0  0  0  0  0  0  0  0
    1.6204   -9.9887   17.2935 C   0  0  0  0  0  0  0  0  0  0  0  0
    1.8931   -7.9265   16.2047 C   0  0  0  0  0  0  0  0  0  0  0  0
    2.4396   -9.0801   16.7132 C   0  0  0  0  0  0  0  0  0  0  0  0
   -0.2575   -8.6234   16.8582 C   0  0  0  0  0  0  0  0  0  0  0  0
    4.0614   -7.0367   27.0106 N   0  0  0  0  0  0  0  0  0  0  0  0
   -2.9133  -11.6279   18.7578 C   0  0  0  0  0  0  0  0  0  0  0  0
    4.5688  -10.1291   29.5758 C   0  0  0  0  0  0  0  0  0  0  0  0
    2.1008   -9.0410   29.1852 N   0  0  0  0  0  0  0  0  0  0  0  0
    3.4829  -10.5697   30.2091 N   0  0  0  0  0  0  0  0  0  0  0  0
   -0.3363   -6.1172   27.5628 C   0  0  0  0  0  0  0  0  0  0  0  0
    3.0331   -7.4400   27.6362 C   0  0  0  0  0  0  0  0  0  0  0  0
    5.4553   -8.5933   27.9644 C   0  0  0  0  0  0  0  0  0  0  0  0
   -2.3870  -12.8440   19.2512 C   0  0  0  0  0  0  0  0  0  0  0  0
    0.5331   -7.6964   16.2751 C   0  0  0  0  0  0  0  0  0  0  0  0
   -0.6740  -10.8737   18.0482 C   0  0  0  0  0  0  0  0  0  0  0  0
    5.6751  -10.5870   29.7637 O   0  0  0  0  0  0  0  0  0  0  0  0
    1.7612   -5.6483   26.7172 C   0  0  0  0  0  0  0  0  0  0  0  0
    0.2221   -9.8326   17.4055 C   0  0  0  0  0  0  0  0  0  0  0  0
    4.3850   -9.0730   28.6745 C   0  0  0  0  0  0  0  0  0  0  0  0
  1  7  4  0
  1 22  4  0
  2 17  4  0
  2 20  4  0
  2 28  4  0
  3  6  1  0
  3 19  1  0
  4 19  1  0
  4 26  1  0
  5 17  4  0
  5 18  4  0
  6 20  1  0
  6 26  1  0
  7 24  4  0
  8 15  4  0
  8 24  4  0
  9 14  4  0
  9 21  4  0
 10 12  4  0
 10 27  4  0
 11 12  4  0
 11 23  4  0
 13 23  4  0
 13 27  4  0
 14 20  4  0
 15 22  4  0
 16 18  4  0
 16 25  2  0
 16 28  4  0
 21 28  4  0
 24 27  1  0
M  END
$$$$

 Created by Python create_sdf_string function

 28 31  0  0  0  0  0  0  0  0999 V2000
   -1.0054  -13.0622   19.1198 C   0  0  0  0  0  0  0  0  0  0  0  0
    3.1478   -8.5360   28.5161 C   0  0  0  0  0  0  0  0  0  0  0  0
    0.5798   -7.1906   27.9330 C   0  0  0  0  0  0  0  0  0  0  0  0
    0.3978   -5.1561   26.6955 C   0  0  0  0  0  0  0  0  0  0  0  0
    2.3063  -10.0533   30.0125 C   0  0  0  0  0  0  0  0  0  0  0  0
    1.8591   -6.8254   27.4685 N   0  0  0  0  0  0  0  0  0  0  0  0
   -0.2167  -12.1055   18.5568 C   0  0  0  0  0  0  0  0  0  0  0  0
   -2.0661  -10.6994   18.1916 C   0  0  0  0  0  0  0  0  0  0  0  0
    5.2703   -7.5691   27.1123 C   0  0  0  0  0  0  0  0  0  0  0  0
    1.6204   -9.9887   17.2935 C   0  0  0  0  0  0  0  0  0  0  0  0
    1.8931   -7.9265   16.2047 C   0  0  0  0  0  0  0  0  0  0  0  0
    2.4396   -9.0801   16.7132 C   0  0  0  0  0  0  0  0  0  0  0  0
   -0.2575   -8.6234   16.8582 C   0  0  0  0  0  0  0  0  0  0  0  0
    4.0614   -7.0367   27.0106 N   0  0  0  0  0  0  0  0  0  0  0  0
   -2.9133  -11.6279   18.7578 C   0  0  0  0  0  0  0  0  0  0  0  0
    4.5688  -10.1291   29.5758 C   0  0  0  0  0  0  0  0  0  0  0  0
    2.1008   -9.0410   29.1852 N   0  0  0  0  0  0  0  0  0  0  0  0
    3.4829  -10.5697   30.2091 N   0  0  0  0  0  0  0  0  0  0  0  0
   -0.3363   -6.1172   27.5628 C   0  0  0  0  0  0  0  0  0  0  0  0
    3.0331   -7.4400   27.6362 C   0  0  0  0  0  0  0  0  0  0  0  0
    5.4553   -8.5933   27.9644 C   0  0  0  0  0  0  0  0  0  0  0  0
   -2.3870  -12.8440   19.2512 C   0  0  0  0  0  0  0  0  0  0  0  0
    0.5331   -7.6964   16.2751 C   0  0  0  0  0  0  0  0  0  0  0  0
   -0.6740  -10.8737   18.0482 C   0  0  0  0  0  0  0  0  0  0  0  0
    5.6751  -10.5870   29.7637 O   0  0  0  0  0  0  0  0  0  0  0  0
    1.7612   -5.6483   26.7172 C   0  0  0  0  0  0  0  0  0  0  0  0
    0.2221   -9.8326   17.4055 C   0  0  0  0  0  0  0  0  0  0  0  0
    4.3850   -9.0730   28.6745 C   0  0  0  0  0  0  0  0  0  0  0  0
  1  7  4  0
  1 22  4  0
  2 17  4  0
  2 20  4  0
  2 28  4  0
  3  6  1  0
  3 19  1  0
  4 19  1  0
  4 26  1  0
  5 17  4  0
  5 18  4  0
  6 20  1  0
  6 26  1  0
  7 24  4  0
  8 15  4  0
  8 24  4  0
  9 14  4  0
  9 21  4  0
 10 12  4  0
 10 27  4  0
 11 12  4  0
 11 23  4  0
 13 23  4  0
 13 27  4  0
 14 20  4  0
 15 22  4  0
 16 18  4  0
 16 25  2  0
 16 28  4  0
 21 28  4  0
 24 27  1  0
M  END
$$$$

 Created by Python create_sdf_string function

 28 31  0  0  0  0  0  0  0  0999 V2000
   -1.0054  -13.0622   19.1198 C   0  0  0  0  0  0  0  0  0  0  0  0
    3.1478   -8.5360   28.5161 C   0  0  0  0  0  0  0  0  0  0  0  0
    0.5798   -7.1906   27.9330 C   0  0  0  0  0  0  0  0  0  0  0  0
    0.3978   -5.1561   26.6955 C   0  0  0  0  0  0  0  0  0  0  0  0
    2.3063  -10.0533   30.0125 C   0  0  0  0  0  0  0  0  0  0  0  0
    1.8591   -6.8254   27.4685 N   0  0  0  0  0  0  0  0  0  0  0  0
   -0.2167  -12.1055   18.5568 C   0  0  0  0  0  0  0  0  0  0  0  0
   -2.0661  -10.6994   18.1916 C   0  0  0  0  0  0  0  0  0  0  0  0
    5.2703   -7.5691   27.1123 C   0  0  0  0  0  0  0  0  0  0  0  0
    1.6204   -9.9887   17.2935 C   0  0  0  0  0  0  0  0  0  0  0  0
    1.8931   -7.9265   16.2047 C   0  0  0  0  0  0  0  0  0  0  0  0
    2.4396   -9.0801   16.7132 C   0  0  0  0  0  0  0  0  0  0  0  0
   -0.2575   -8.6234   16.8582 C   0  0  0  0  0  0  0  0  0  0  0  0
    4.0614   -7.0367   27.0106 N   0  0  0  0  0  0  0  0  0  0  0  0
   -2.9133  -11.6279   18.7578 C   0  0  0  0  0  0  0  0  0  0  0  0
    4.5688  -10.1291   29.5758 C   0  0  0  0  0  0  0  0  0  0  0  0
    2.1008   -9.0410   29.1852 N   0  0  0  0  0  0  0  0  0  0  0  0
    3.4829  -10.5697   30.2091 N   0  0  0  0  0  0  0  0  0  0  0  0
   -0.3363   -6.1172   27.5628 C   0  0  0  0  0  0  0  0  0  0  0  0
    3.0331   -7.4400   27.6362 C   0  0  0  0  0  0  0  0  0  0  0  0
    5.4553   -8.5933   27.9644 C   0  0  0  0  0  0  0  0  0  0  0  0
   -2.3870  -12.8440   19.2512 C   0  0  0  0  0  0  0  0  0  0  0  0
    0.5331   -7.6964   16.2751 C   0  0  0  0  0  0  0  0  0  0  0  0
   -0.6740  -10.8737   18.0482 C   0  0  0  0  0  0  0  0  0  0  0  0
    5.6751  -10.5870   29.7637 O   0  0  0  0  0  0  0  0  0  0  0  0
    1.7612   -5.6483   26.7172 C   0  0  0  0  0  0  0  0  0  0  0  0
    0.2221   -9.8326   17.4055 C   0  0  0  0  0  0  0  0  0  0  0  0
    4.3850   -9.0730   28.6745 C   0  0  0  0  0  0  0  0  0  0  0  0
  1  7  4  0
  1 22  4  0
  2 17  4  0
  2 20  4  0
  2 28  4  0
  3  6  1  0
  3 19  1  0
  4 19  1  0
  4 26  1  0
  5 17  4  0
  5 18  4  0
  6 20  1  0
  6 26  1  0
  7 24  4  0
  8 15  4  0
  8 24  4  0
  9 14  4  0
  9 21  4  0
 10 12  4  0
 10 27  4  0
 11 12  4  0
 11 23  4  0
 13 23  4  0
 13 27  4  0
 14 20  4  0
 15 22  4  0
 16 18  4  0
 16 25  2  0
 16 28  4  0
 21 28  4  0
 24 27  1  0
M  END
$$$$

 Created by Python create_sdf_string function

 28 31  0  0  0  0  0  0  0  0999 V2000
   -1.0054  -13.0622   19.1198 C   0  0  0  0  0  0  0  0  0  0  0  0
    3.1478   -8.5360   28.5161 C   0  0  0  0  0  0  0  0  0  0  0  0
    0.5798   -7.1906   27.9330 C   0  0  0  0  0  0  0  0  0  0  0  0
    0.3978   -5.1561   26.6955 C   0  0  0  0  0  0  0  0  0  0  0  0
    2.3063  -10.0533   30.0125 C   0  0  0  0  0  0  0  0  0  0  0  0
    1.8591   -6.8254   27.4685 N   0  0  0  0  0  0  0  0  0  0  0  0
   -0.2167  -12.1055   18.5568 C   0  0  0  0  0  0  0  0  0  0  0  0
   -2.0661  -10.6994   18.1916 C   0  0  0  0  0  0  0  0  0  0  0  0
    5.2703   -7.5691   27.1123 C   0  0  0  0  0  0  0  0  0  0  0  0
    1.6204   -9.9887   17.2935 C   0  0  0  0  0  0  0  0  0  0  0  0
    1.8931   -7.9265   16.2047 C   0  0  0  0  0  0  0  0  0  0  0  0
    2.4396   -9.0801   16.7132 C   0  0  0  0  0  0  0  0  0  0  0  0
   -0.2575   -8.6234   16.8582 C   0  0  0  0  0  0  0  0  0  0  0  0
    4.0614   -7.0367   27.0106 N   0  0  0  0  0  0  0  0  0  0  0  0
   -2.9133  -11.6279   18.7578 C   0  0  0  0  0  0  0  0  0  0  0  0
    4.5688  -10.1291   29.5758 C   0  0  0  0  0  0  0  0  0  0  0  0
    2.1008   -9.0410   29.1852 N   0  0  0  0  0  0  0  0  0  0  0  0
    3.4829  -10.5697   30.2091 N   0  0  0  0  0  0  0  0  0  0  0  0
   -0.3363   -6.1172   27.5628 C   0  0  0  0  0  0  0  0  0  0  0  0
    3.0331   -7.4400   27.6362 C   0  0  0  0  0  0  0  0  0  0  0  0
    5.4553   -8.5933   27.9644 C   0  0  0  0  0  0  0  0  0  0  0  0
   -2.3870  -12.8440   19.2512 C   0  0  0  0  0  0  0  0  0  0  0  0
    0.5331   -7.6964   16.2751 C   0  0  0  0  0  0  0  0  0  0  0  0
   -0.6740  -10.8737   18.0482 C   0  0  0  0  0  0  0  0  0  0  0  0
    5.6751  -10.5870   29.7637 O   0  0  0  0  0  0  0  0  0  0  0  0
    1.7612   -5.6483   26.7172 C   0  0  0  0  0  0  0  0  0  0  0  0
    0.2221   -9.8326   17.4055 C   0  0  0  0  0  0  0  0  0  0  0  0
    4.3850   -9.0730   28.6745 C   0  0  0  0  0  0  0  0  0  0  0  0
  1  7  4  0
  1 22  4  0
  2 17  4  0
  2 20  4  0
  2 28  4  0
  3  6  1  0
  3 19  1  0
  4 19  1  0
  4 26  1  0
  5 17  4  0
  5 18  4  0
  6 20  1  0
  6 26  1  0
  7 24  4  0
  8 15  4  0
  8 24  4  0
  9 14  4  0
  9 21  4  0
 10 12  4  0
 10 27  4  0
 11 12  4  0
 11 23  4  0
 13 23  4  0
 13 27  4  0
 14 20  4  0
 15 22  4  0
 16 18  4  0
 16 25  2  0
 16 28  4  0
 21 28  4  0
 24 27  1  0
M  END
$$$$

 Created by Python create_sdf_string function

 28 31  0  0  0  0  0  0  0  0999 V2000
   -1.0054  -13.0622   19.1198 C   0  0  0  0  0  0  0  0  0  0  0  0
    3.1478   -8.5360   28.5161 C   0  0  0  0  0  0  0  0  0  0  0  0
    0.5798   -7.1906   27.9330 C   0  0  0  0  0  0  0  0  0  0  0  0
    0.3978   -5.1561   26.6955 C   0  0  0  0  0  0  0  0  0  0  0  0
    2.3063  -10.0533   30.0125 C   0  0  0  0  0  0  0  0  0  0  0  0
    1.8591   -6.8254   27.4685 N   0  0  0  0  0  0  0  0  0  0  0  0
   -0.2167  -12.1055   18.5568 C   0  0  0  0  0  0  0  0  0  0  0  0
   -2.0661  -10.6994   18.1916 C   0  0  0  0  0  0  0  0  0  0  0  0
    5.2703   -7.5691   27.1123 C   0  0  0  0  0  0  0  0  0  0  0  0
    1.6204   -9.9887   17.2935 C   0  0  0  0  0  0  0  0  0  0  0  0
    1.8931   -7.9265   16.2047 C   0  0  0  0  0  0  0  0  0  0  0  0
    2.4396   -9.0801   16.7132 C   0  0  0  0  0  0  0  0  0  0  0  0
   -0.2575   -8.6234   16.8582 C   0  0  0  0  0  0  0  0  0  0  0  0
    4.0614   -7.0367   27.0106 N   0  0  0  0  0  0  0  0  0  0  0  0
   -2.9133  -11.6279   18.7578 C   0  0  0  0  0  0  0  0  0  0  0  0
    4.5688  -10.1291   29.5758 C   0  0  0  0  0  0  0  0  0  0  0  0
    2.1008   -9.0410   29.1852 N   0  0  0  0  0  0  0  0  0  0  0  0
    3.4829  -10.5697   30.2091 N   0  0  0  0  0  0  0  0  0  0  0  0
   -0.3363   -6.1172   27.5628 C   0  0  0  0  0  0  0  0  0  0  0  0
    3.0331   -7.4400   27.6362 C   0  0  0  0  0  0  0  0  0  0  0  0
    5.4553   -8.5933   27.9644 C   0  0  0  0  0  0  0  0  0  0  0  0
   -2.3870  -12.8440   19.2512 C   0  0  0  0  0  0  0  0  0  0  0  0
    0.5331   -7.6964   16.2751 C   0  0  0  0  0  0  0  0  0  0  0  0
   -0.6740  -10.8737   18.0482 C   0  0  0  0  0  0  0  0  0  0  0  0
    5.6751  -10.5870   29.7637 O   0  0  0  0  0  0  0  0  0  0  0  0
    1.7612   -5.6483   26.7172 C   0  0  0  0  0  0  0  0  0  0  0  0
    0.2221   -9.8326   17.4055 C   0  0  0  0  0  0  0  0  0  0  0  0
    4.3850   -9.0730   28.6745 C   0  0  0  0  0  0  0  0  0  0  0  0
  1  7  4  0
  1 22  4  0
  2 17  4  0
  2 20  4  0
  2 28  4  0
  3  6  1  0
  3 19  1  0
  4 19  1  0
  4 26  1  0
  5 17  4  0
  5 18  4  0
  6 20  1  0
  6 26  1  0
  7 24  4  0
  8 15  4  0
  8 24  4  0
  9 14  4  0
  9 21  4  0
 10 12  4  0
 10 27  4  0
 11 12  4  0
 11 23  4  0
 13 23  4  0
 13 27  4  0
 14 20  4  0
 15 22  4  0
 16 18  4  0
 16 25  2  0
 16 28  4  0
 21 28  4  0
 24 27  1  0
M  END
$$$$

 Created by Python create_sdf_string function

 28 31  0  0  0  0  0  0  0  0999 V2000
   -1.0054  -13.0622   19.1198 C   0  0  0  0  0  0  0  0  0  0  0  0
    3.1478   -8.5360   28.5161 C   0  0  0  0  0  0  0  0  0  0  0  0
    0.5798   -7.1906   27.9330 C   0  0  0  0  0  0  0  0  0  0  0  0
    0.3978   -5.1561   26.6955 C   0  0  0  0  0  0  0  0  0  0  0  0
    2.3063  -10.0533   30.0125 C   0  0  0  0  0  0  0  0  0  0  0  0
    1.8591   -6.8254   27.4685 N   0  0  0  0  0  0  0  0  0  0  0  0
   -0.2167  -12.1055   18.5568 C   0  0  0  0  0  0  0  0  0  0  0  0
   -2.0661  -10.6994   18.1916 C   0  0  0  0  0  0  0  0  0  0  0  0
    5.2703   -7.5691   27.1123 C   0  0  0  0  0  0  0  0  0  0  0  0
    1.6204   -9.9887   17.2935 C   0  0  0  0  0  0  0  0  0  0  0  0
    1.8931   -7.9265   16.2047 C   0  0  0  0  0  0  0  0  0  0  0  0
    2.4396   -9.0801   16.7132 C   0  0  0  0  0  0  0  0  0  0  0  0
   -0.2575   -8.6234   16.8582 C   0  0  0  0  0  0  0  0  0  0  0  0
    4.0614   -7.0367   27.0106 N   0  0  0  0  0  0  0  0  0  0  0  0
   -2.9133  -11.6279   18.7578 C   0  0  0  0  0  0  0  0  0  0  0  0
    4.5688  -10.1291   29.5758 C   0  0  0  0  0  0  0  0  0  0  0  0
    2.1008   -9.0410   29.1852 N   0  0  0  0  0  0  0  0  0  0  0  0
    3.4829  -10.5697   30.2091 N   0  0  0  0  0  0  0  0  0  0  0  0
   -0.3363   -6.1172   27.5628 C   0  0  0  0  0  0  0  0  0  0  0  0
    3.0331   -7.4400   27.6362 C   0  0  0  0  0  0  0  0  0  0  0  0
    5.4553   -8.5933   27.9644 C   0  0  0  0  0  0  0  0  0  0  0  0
   -2.3870  -12.8440   19.2512 C   0  0  0  0  0  0  0  0  0  0  0  0
    0.5331   -7.6964   16.2751 C   0  0  0  0  0  0  0  0  0  0  0  0
   -0.6740  -10.8737   18.0482 C   0  0  0  0  0  0  0  0  0  0  0  0
    5.6751  -10.5870   29.7637 O   0  0  0  0  0  0  0  0  0  0  0  0
    1.7612   -5.6483   26.7172 C   0  0  0  0  0  0  0  0  0  0  0  0
    0.2221   -9.8326   17.4055 C   0  0  0  0  0  0  0  0  0  0  0  0
    4.3850   -9.0730   28.6745 C   0  0  0  0  0  0  0  0  0  0  0  0
  1  7  4  0
  1 22  4  0
  2 17  4  0
  2 20  4  0
  2 28  4  0
  3  6  1  0
  3 19  1  0
  4 19  1  0
  4 26  1  0
  5 17  4  0
  5 18  4  0
  6 20  1  0
  6 26  1  0
  7 24  4  0
  8 15  4  0
  8 24  4  0
  9 14  4  0
  9 21  4  0
 10 12  4  0
 10 27  4  0
 11 12  4  0
 11 23  4  0
 13 23  4  0
 13 27  4  0
 14 20  4  0
 15 22  4  0
 16 18  4  0
 16 25  2  0
 16 28  4  0
 21 28  4  0
 24 27  1  0
M  END
$$$$

 Created by Python create_sdf_string function

 28 31  0  0  0  0  0  0  0  0999 V2000
   -1.0054  -13.0622   19.1198 C   0  0  0  0  0  0  0  0  0  0  0  0
    3.1478   -8.5360   28.5161 C   0  0  0  0  0  0  0  0  0  0  0  0
    0.5798   -7.1906   27.9330 C   0  0  0  0  0  0  0  0  0  0  0  0
    0.3978   -5.1561   26.6955 C   0  0  0  0  0  0  0  0  0  0  0  0
    2.3063  -10.0533   30.0125 C   0  0  0  0  0  0  0  0  0  0  0  0
    1.8591   -6.8254   27.4685 N   0  0  0  0  0  0  0  0  0  0  0  0
   -0.2167  -12.1055   18.5568 C   0  0  0  0  0  0  0  0  0  0  0  0
   -2.0661  -10.6994   18.1916 C   0  0  0  0  0  0  0  0  0  0  0  0
    5.2703   -7.5691   27.1123 C   0  0  0  0  0  0  0  0  0  0  0  0
    1.6204   -9.9887   17.2935 C   0  0  0  0  0  0  0  0  0  0  0  0
    1.8931   -7.9265   16.2047 C   0  0  0  0  0  0  0  0  0  0  0  0
    2.4396   -9.0801   16.7132 C   0  0  0  0  0  0  0  0  0  0  0  0
   -0.2575   -8.6234   16.8582 C   0  0  0  0  0  0  0  0  0  0  0  0
    4.0614   -7.0367   27.0106 N   0  0  0  0  0  0  0  0  0  0  0  0
   -2.9133  -11.6279   18.7578 C   0  0  0  0  0  0  0  0  0  0  0  0
    4.5688  -10.1291   29.5758 C   0  0  0  0  0  0  0  0  0  0  0  0
    2.1008   -9.0410   29.1852 N   0  0  0  0  0  0  0  0  0  0  0  0
    3.4829  -10.5697   30.2091 N   0  0  0  0  0  0  0  0  0  0  0  0
   -0.3363   -6.1172   27.5628 C   0  0  0  0  0  0  0  0  0  0  0  0
    3.0331   -7.4400   27.6362 C   0  0  0  0  0  0  0  0  0  0  0  0
    5.4553   -8.5933   27.9644 C   0  0  0  0  0  0  0  0  0  0  0  0
   -2.3870  -12.8440   19.2512 C   0  0  0  0  0  0  0  0  0  0  0  0
    0.5331   -7.6964   16.2751 C   0  0  0  0  0  0  0  0  0  0  0  0
   -0.6740  -10.8737   18.0482 C   0  0  0  0  0  0  0  0  0  0  0  0
    5.6751  -10.5870   29.7637 O   0  0  0  0  0  0  0  0  0  0  0  0
    1.7612   -5.6483   26.7172 C   0  0  0  0  0  0  0  0  0  0  0  0
    0.2221   -9.8326   17.4055 C   0  0  0  0  0  0  0  0  0  0  0  0
    4.3850   -9.0730   28.6745 C   0  0  0  0  0  0  0  0  0  0  0  0
  1  7  4  0
  1 22  4  0
  2 17  4  0
  2 20  4  0
  2 28  4  0
  3  6  1  0
  3 19  1  0
  4 19  1  0
  4 26  1  0
  5 17  4  0
  5 18  4  0
  6 20  1  0
  6 26  1  0
  7 24  4  0
  8 15  4  0
  8 24  4  0
  9 14  4  0
  9 21  4  0
 10 12  4  0
 10 27  4  0
 11 12  4  0
 11 23  4  0
 13 23  4  0
 13 27  4  0
 14 20  4  0
 15 22  4  0
 16 18  4  0
 16 25  2  0
 16 28  4  0
 21 28  4  0
 24 27  1  0
M  END
$$$$

 Created by Python create_sdf_string function

 28 31  0  0  0  0  0  0  0  0999 V2000
   -1.0054  -13.0622   19.1198 C   0  0  0  0  0  0  0  0  0  0  0  0
    3.1478   -8.5360   28.5161 C   0  0  0  0  0  0  0  0  0  0  0  0
    0.5798   -7.1906   27.9330 C   0  0  0  0  0  0  0  0  0  0  0  0
    0.3978   -5.1561   26.6955 C   0  0  0  0  0  0  0  0  0  0  0  0
    2.3063  -10.0533   30.0125 C   0  0  0  0  0  0  0  0  0  0  0  0
    1.8591   -6.8254   27.4685 N   0  0  0  0  0  0  0  0  0  0  0  0
   -0.2167  -12.1055   18.5568 C   0  0  0  0  0  0  0  0  0  0  0  0
   -2.0661  -10.6994   18.1916 C   0  0  0  0  0  0  0  0  0  0  0  0
    5.2703   -7.5691   27.1123 C   0  0  0  0  0  0  0  0  0  0  0  0
    1.6204   -9.9887   17.2935 C   0  0  0  0  0  0  0  0  0  0  0  0
    1.8931   -7.9265   16.2047 C   0  0  0  0  0  0  0  0  0  0  0  0
    2.4396   -9.0801   16.7132 C   0  0  0  0  0  0  0  0  0  0  0  0
   -0.2575   -8.6234   16.8582 C   0  0  0  0  0  0  0  0  0  0  0  0
    4.0614   -7.0367   27.0106 N   0  0  0  0  0  0  0  0  0  0  0  0
   -2.9133  -11.6279   18.7578 C   0  0  0  0  0  0  0  0  0  0  0  0
    4.5688  -10.1291   29.5758 C   0  0  0  0  0  0  0  0  0  0  0  0
    2.1008   -9.0410   29.1852 N   0  0  0  0  0  0  0  0  0  0  0  0
    3.4829  -10.5697   30.2091 N   0  0  0  0  0  0  0  0  0  0  0  0
   -0.3363   -6.1172   27.5628 C   0  0  0  0  0  0  0  0  0  0  0  0
    3.0331   -7.4400   27.6362 C   0  0  0  0  0  0  0  0  0  0  0  0
    5.4553   -8.5933   27.9644 C   0  0  0  0  0  0  0  0  0  0  0  0
   -2.3870  -12.8440   19.2512 C   0  0  0  0  0  0  0  0  0  0  0  0
    0.5331   -7.6964   16.2751 C   0  0  0  0  0  0  0  0  0  0  0  0
   -0.6740  -10.8737   18.0482 C   0  0  0  0  0  0  0  0  0  0  0  0
    5.6751  -10.5870   29.7637 O   0  0  0  0  0  0  0  0  0  0  0  0
    1.7612   -5.6483   26.7172 C   0  0  0  0  0  0  0  0  0  0  0  0
    0.2221   -9.8326   17.4055 C   0  0  0  0  0  0  0  0  0  0  0  0
    4.3850   -9.0730   28.6745 C   0  0  0  0  0  0  0  0  0  0  0  0
  1  7  4  0
  1 22  4  0
  2 17  4  0
  2 20  4  0
  2 28  4  0
  3  6  1  0
  3 19  1  0
  4 19  1  0
  4 26  1  0
  5 17  4  0
  5 18  4  0
  6 20  1  0
  6 26  1  0
  7 24  4  0
  8 15  4  0
  8 24  4  0
  9 14  4  0
  9 21  4  0
 10 12  4  0
 10 27  4  0
 11 12  4  0
 11 23  4  0
 13 23  4  0
 13 27  4  0
 14 20  4  0
 15 22  4  0
 16 18  4  0
 16 25  2  0
 16 28  4  0
 21 28  4  0
 24 27  1  0
M  END
$$$$

 Created by Python create_sdf_string function

 28 31  0  0  0  0  0  0  0  0999 V2000
   -1.0054  -13.0622   19.1198 C   0  0  0  0  0  0  0  0  0  0  0  0
    3.1478   -8.5360   28.5161 C   0  0  0  0  0  0  0  0  0  0  0  0
    0.5798   -7.1906   27.9330 C   0  0  0  0  0  0  0  0  0  0  0  0
    0.3978   -5.1561   26.6955 C   0  0  0  0  0  0  0  0  0  0  0  0
    2.3063  -10.0533   30.0125 C   0  0  0  0  0  0  0  0  0  0  0  0
    1.8591   -6.8254   27.4685 N   0  0  0  0  0  0  0  0  0  0  0  0
   -0.2167  -12.1055   18.5568 C   0  0  0  0  0  0  0  0  0  0  0  0
   -2.0661  -10.6994   18.1916 C   0  0  0  0  0  0  0  0  0  0  0  0
    5.2703   -7.5691   27.1123 C   0  0  0  0  0  0  0  0  0  0  0  0
    1.6204   -9.9887   17.2935 C   0  0  0  0  0  0  0  0  0  0  0  0
    1.8931   -7.9265   16.2047 C   0  0  0  0  0  0  0  0  0  0  0  0
    2.4396   -9.0801   16.7132 C   0  0  0  0  0  0  0  0  0  0  0  0
   -0.2575   -8.6234   16.8582 C   0  0  0  0  0  0  0  0  0  0  0  0
    4.0614   -7.0367   27.0106 N   0  0  0  0  0  0  0  0  0  0  0  0
   -2.9133  -11.6279   18.7578 C   0  0  0  0  0  0  0  0  0  0  0  0
    4.5688  -10.1291   29.5758 C   0  0  0  0  0  0  0  0  0  0  0  0
    2.1008   -9.0410   29.1852 N   0  0  0  0  0  0  0  0  0  0  0  0
    3.4829  -10.5697   30.2091 N   0  0  0  0  0  0  0  0  0  0  0  0
   -0.3363   -6.1172   27.5628 C   0  0  0  0  0  0  0  0  0  0  0  0
    3.0331   -7.4400   27.6362 C   0  0  0  0  0  0  0  0  0  0  0  0
    5.4553   -8.5933   27.9644 C   0  0  0  0  0  0  0  0  0  0  0  0
   -2.3870  -12.8440   19.2512 C   0  0  0  0  0  0  0  0  0  0  0  0
    0.5331   -7.6964   16.2751 C   0  0  0  0  0  0  0  0  0  0  0  0
   -0.6740  -10.8737   18.0482 C   0  0  0  0  0  0  0  0  0  0  0  0
    5.6751  -10.5870   29.7637 O   0  0  0  0  0  0  0  0  0  0  0  0
    1.7612   -5.6483   26.7172 C   0  0  0  0  0  0  0  0  0  0  0  0
    0.2221   -9.8326   17.4055 C   0  0  0  0  0  0  0  0  0  0  0  0
    4.3850   -9.0730   28.6745 C   0  0  0  0  0  0  0  0  0  0  0  0
  1  7  4  0
  1 22  4  0
  2 17  4  0
  2 20  4  0
  2 28  4  0
  3  6  1  0
  3 19  1  0
  4 19  1  0
  4 26  1  0
  5 17  4  0
  5 18  4  0
  6 20  1  0
  6 26  1  0
  7 24  4  0
  8 15  4  0
  8 24  4  0
  9 14  4  0
  9 21  4  0
 10 12  4  0
 10 27  4  0
 11 12  4  0
 11 23  4  0
 13 23  4  0
 13 27  4  0
 14 20  4  0
 15 22  4  0
 16 18  4  0
 16 25  2  0
 16 28  4  0
 21 28  4  0
 24 27  1  0
M  END
$$$$

 Created by Python create_sdf_string function

 28 31  0  0  0  0  0  0  0  0999 V2000
   -1.0054  -13.0622   19.1198 C   0  0  0  0  0  0  0  0  0  0  0  0
    3.1478   -8.5360   28.5161 C   0  0  0  0  0  0  0  0  0  0  0  0
    0.5798   -7.1906   27.9330 C   0  0  0  0  0  0  0  0  0  0  0  0
    0.3978   -5.1561   26.6955 C   0  0  0  0  0  0  0  0  0  0  0  0
    2.3063  -10.0533   30.0125 C   0  0  0  0  0  0  0  0  0  0  0  0
    1.8591   -6.8254   27.4685 N   0  0  0  0  0  0  0  0  0  0  0  0
   -0.2167  -12.1055   18.5568 C   0  0  0  0  0  0  0  0  0  0  0  0
   -2.0661  -10.6994   18.1916 C   0  0  0  0  0  0  0  0  0  0  0  0
    5.2703   -7.5691   27.1123 C   0  0  0  0  0  0  0  0  0  0  0  0
    1.6204   -9.9887   17.2935 C   0  0  0  0  0  0  0  0  0  0  0  0
    1.8931   -7.9265   16.2047 C   0  0  0  0  0  0  0  0  0  0  0  0
    2.4396   -9.0801   16.7132 C   0  0  0  0  0  0  0  0  0  0  0  0
   -0.2575   -8.6234   16.8582 C   0  0  0  0  0  0  0  0  0  0  0  0
    4.0614   -7.0367   27.0106 N   0  0  0  0  0  0  0  0  0  0  0  0
   -2.9133  -11.6279   18.7578 C   0  0  0  0  0  0  0  0  0  0  0  0
    4.5688  -10.1291   29.5758 C   0  0  0  0  0  0  0  0  0  0  0  0
    2.1008   -9.0410   29.1852 N   0  0  0  0  0  0  0  0  0  0  0  0
    3.4829  -10.5697   30.2091 N   0  0  0  0  0  0  0  0  0  0  0  0
   -0.3363   -6.1172   27.5628 C   0  0  0  0  0  0  0  0  0  0  0  0
    3.0331   -7.4400   27.6362 C   0  0  0  0  0  0  0  0  0  0  0  0
    5.4553   -8.5933   27.9644 C   0  0  0  0  0  0  0  0  0  0  0  0
   -2.3870  -12.8440   19.2512 C   0  0  0  0  0  0  0  0  0  0  0  0
    0.5331   -7.6964   16.2751 C   0  0  0  0  0  0  0  0  0  0  0  0
   -0.6740  -10.8737   18.0482 C   0  0  0  0  0  0  0  0  0  0  0  0
    5.6751  -10.5870   29.7637 O   0  0  0  0  0  0  0  0  0  0  0  0
    1.7612   -5.6483   26.7172 C   0  0  0  0  0  0  0  0  0  0  0  0
    0.2221   -9.8326   17.4055 C   0  0  0  0  0  0  0  0  0  0  0  0
    4.3850   -9.0730   28.6745 C   0  0  0  0  0  0  0  0  0  0  0  0
  1  7  4  0
  1 22  4  0
  2 17  4  0
  2 20  4  0
  2 28  4  0
  3  6  1  0
  3 19  1  0
  4 19  1  0
  4 26  1  0
  5 17  4  0
  5 18  4  0
  6 20  1  0
  6 26  1  0
  7 24  4  0
  8 15  4  0
  8 24  4  0
  9 14  4  0
  9 21  4  0
 10 12  4  0
 10 27  4  0
 11 12  4  0
 11 23  4  0
 13 23  4  0
 13 27  4  0
 14 20  4  0
 15 22  4  0
 16 18  4  0
 16 25  2  0
 16 28  4  0
 21 28  4  0
 24 27  1  0
M  END
$$$$

 Created by Python create_sdf_string function

 28 31  0  0  0  0  0  0  0  0999 V2000
   -1.0054  -13.0622   19.1198 C   0  0  0  0  0  0  0  0  0  0  0  0
    3.1478   -8.5360   28.5161 C   0  0  0  0  0  0  0  0  0  0  0  0
    0.5798   -7.1906   27.9330 C   0  0  0  0  0  0  0  0  0  0  0  0
    0.3978   -5.1561   26.6955 C   0  0  0  0  0  0  0  0  0  0  0  0
    2.3063  -10.0533   30.0125 C   0  0  0  0  0  0  0  0  0  0  0  0
    1.8591   -6.8254   27.4685 N   0  0  0  0  0  0  0  0  0  0  0  0
   -0.2167  -12.1055   18.5568 C   0  0  0  0  0  0  0  0  0  0  0  0
   -2.0661  -10.6994   18.1916 C   0  0  0  0  0  0  0  0  0  0  0  0
    5.2703   -7.5691   27.1123 C   0  0  0  0  0  0  0  0  0  0  0  0
    1.6204   -9.9887   17.2935 C   0  0  0  0  0  0  0  0  0  0  0  0
    1.8931   -7.9265   16.2047 C   0  0  0  0  0  0  0  0  0  0  0  0
    2.4396   -9.0801   16.7132 C   0  0  0  0  0  0  0  0  0  0  0  0
   -0.2575   -8.6234   16.8582 C   0  0  0  0  0  0  0  0  0  0  0  0
    4.0614   -7.0367   27.0106 N   0  0  0  0  0  0  0  0  0  0  0  0
   -2.9133  -11.6279   18.7578 C   0  0  0  0  0  0  0  0  0  0  0  0
    4.5688  -10.1291   29.5758 C   0  0  0  0  0  0  0  0  0  0  0  0
    2.1008   -9.0410   29.1852 N   0  0  0  0  0  0  0  0  0  0  0  0
    3.4829  -10.5697   30.2091 N   0  0  0  0  0  0  0  0  0  0  0  0
   -0.3363   -6.1172   27.5628 C   0  0  0  0  0  0  0  0  0  0  0  0
    3.0331   -7.4400   27.6362 C   0  0  0  0  0  0  0  0  0  0  0  0
    5.4553   -8.5933   27.9644 C   0  0  0  0  0  0  0  0  0  0  0  0
   -2.3870  -12.8440   19.2512 C   0  0  0  0  0  0  0  0  0  0  0  0
    0.5331   -7.6964   16.2751 C   0  0  0  0  0  0  0  0  0  0  0  0
   -0.6740  -10.8737   18.0482 C   0  0  0  0  0  0  0  0  0  0  0  0
    5.6751  -10.5870   29.7637 O   0  0  0  0  0  0  0  0  0  0  0  0
    1.7612   -5.6483   26.7172 C   0  0  0  0  0  0  0  0  0  0  0  0
    0.2221   -9.8326   17.4055 C   0  0  0  0  0  0  0  0  0  0  0  0
    4.3850   -9.0730   28.6745 C   0  0  0  0  0  0  0  0  0  0  0  0
  1  7  4  0
  1 22  4  0
  2 17  4  0
  2 20  4  0
  2 28  4  0
  3  6  1  0
  3 19  1  0
  4 19  1  0
  4 26  1  0
  5 17  4  0
  5 18  4  0
  6 20  1  0
  6 26  1  0
  7 24  4  0
  8 15  4  0
  8 24  4  0
  9 14  4  0
  9 21  4  0
 10 12  4  0
 10 27  4  0
 11 12  4  0
 11 23  4  0
 13 23  4  0
 13 27  4  0
 14 20  4  0
 15 22  4  0
 16 18  4  0
 16 25  2  0
 16 28  4  0
 21 28  4  0
 24 27  1  0
M  END
$$$$

 Created by Python create_sdf_string function

 28 31  0  0  0  0  0  0  0  0999 V2000
   -1.0054  -13.0622   19.1198 C   0  0  0  0  0  0  0  0  0  0  0  0
    3.1478   -8.5360   28.5161 C   0  0  0  0  0  0  0  0  0  0  0  0
    0.5798   -7.1906   27.9330 C   0  0  0  0  0  0  0  0  0  0  0  0
    0.3978   -5.1561   26.6955 C   0  0  0  0  0  0  0  0  0  0  0  0
    2.3063  -10.0533   30.0125 C   0  0  0  0  0  0  0  0  0  0  0  0
    1.8591   -6.8254   27.4685 N   0  0  0  0  0  0  0  0  0  0  0  0
   -0.2167  -12.1055   18.5568 C   0  0  0  0  0  0  0  0  0  0  0  0
   -2.0661  -10.6994   18.1916 C   0  0  0  0  0  0  0  0  0  0  0  0
    5.2703   -7.5691   27.1123 C   0  0  0  0  0  0  0  0  0  0  0  0
    1.6204   -9.9887   17.2935 C   0  0  0  0  0  0  0  0  0  0  0  0
    1.8931   -7.9265   16.2047 C   0  0  0  0  0  0  0  0  0  0  0  0
    2.4396   -9.0801   16.7132 C   0  0  0  0  0  0  0  0  0  0  0  0
   -0.2575   -8.6234   16.8582 C   0  0  0  0  0  0  0  0  0  0  0  0
    4.0614   -7.0367   27.0106 N   0  0  0  0  0  0  0  0  0  0  0  0
   -2.9133  -11.6279   18.7578 C   0  0  0  0  0  0  0  0  0  0  0  0
    4.5688  -10.1291   29.5758 C   0  0  0  0  0  0  0  0  0  0  0  0
    2.1008   -9.0410   29.1852 N   0  0  0  0  0  0  0  0  0  0  0  0
    3.4829  -10.5697   30.2091 N   0  0  0  0  0  0  0  0  0  0  0  0
   -0.3363   -6.1172   27.5628 C   0  0  0  0  0  0  0  0  0  0  0  0
    3.0331   -7.4400   27.6362 C   0  0  0  0  0  0  0  0  0  0  0  0
    5.4553   -8.5933   27.9644 C   0  0  0  0  0  0  0  0  0  0  0  0
   -2.3870  -12.8440   19.2512 C   0  0  0  0  0  0  0  0  0  0  0  0
    0.5331   -7.6964   16.2751 C   0  0  0  0  0  0  0  0  0  0  0  0
   -0.6740  -10.8737   18.0482 C   0  0  0  0  0  0  0  0  0  0  0  0
    5.6751  -10.5870   29.7637 O   0  0  0  0  0  0  0  0  0  0  0  0
    1.7612   -5.6483   26.7172 C   0  0  0  0  0  0  0  0  0  0  0  0
    0.2221   -9.8326   17.4055 C   0  0  0  0  0  0  0  0  0  0  0  0
    4.3850   -9.0730   28.6745 C   0  0  0  0  0  0  0  0  0  0  0  0
  1  7  4  0
  1 22  4  0
  2 17  4  0
  2 20  4  0
  2 28  4  0
  3  6  1  0
  3 19  1  0
  4 19  1  0
  4 26  1  0
  5 17  4  0
  5 18  4  0
  6 20  1  0
  6 26  1  0
  7 24  4  0
  8 15  4  0
  8 24  4  0
  9 14  4  0
  9 21  4  0
 10 12  4  0
 10 27  4  0
 11 12  4  0
 11 23  4  0
 13 23  4  0
 13 27  4  0
 14 20  4  0
 15 22  4  0
 16 18  4  0
 16 25  2  0
 16 28  4  0
 21 28  4  0
 24 27  1  0
M  END
$$$$

 Created by Python create_sdf_string function

 28 31  0  0  0  0  0  0  0  0999 V2000
   -1.0054  -13.0622   19.1198 C   0  0  0  0  0  0  0  0  0  0  0  0
    3.1478   -8.5360   28.5161 C   0  0  0  0  0  0  0  0  0  0  0  0
    0.5798   -7.1906   27.9330 C   0  0  0  0  0  0  0  0  0  0  0  0
    0.3978   -5.1561   26.6955 C   0  0  0  0  0  0  0  0  0  0  0  0
    2.3063  -10.0533   30.0125 C   0  0  0  0  0  0  0  0  0  0  0  0
    1.8591   -6.8254   27.4685 N   0  0  0  0  0  0  0  0  0  0  0  0
   -0.2167  -12.1055   18.5568 C   0  0  0  0  0  0  0  0  0  0  0  0
   -2.0661  -10.6994   18.1916 C   0  0  0  0  0  0  0  0  0  0  0  0
    5.2703   -7.5691   27.1123 C   0  0  0  0  0  0  0  0  0  0  0  0
    1.6204   -9.9887   17.2935 C   0  0  0  0  0  0  0  0  0  0  0  0
    1.8931   -7.9265   16.2047 C   0  0  0  0  0  0  0  0  0  0  0  0
    2.4396   -9.0801   16.7132 C   0  0  0  0  0  0  0  0  0  0  0  0
   -0.2575   -8.6234   16.8582 C   0  0  0  0  0  0  0  0  0  0  0  0
    4.0614   -7.0367   27.0106 N   0  0  0  0  0  0  0  0  0  0  0  0
   -2.9133  -11.6279   18.7578 C   0  0  0  0  0  0  0  0  0  0  0  0
    4.5688  -10.1291   29.5758 C   0  0  0  0  0  0  0  0  0  0  0  0
    2.1008   -9.0410   29.1852 N   0  0  0  0  0  0  0  0  0  0  0  0
    3.4829  -10.5697   30.2091 N   0  0  0  0  0  0  0  0  0  0  0  0
   -0.3363   -6.1172   27.5628 C   0  0  0  0  0  0  0  0  0  0  0  0
    3.0331   -7.4400   27.6362 C   0  0  0  0  0  0  0  0  0  0  0  0
    5.4553   -8.5933   27.9644 C   0  0  0  0  0  0  0  0  0  0  0  0
   -2.3870  -12.8440   19.2512 C   0  0  0  0  0  0  0  0  0  0  0  0
    0.5331   -7.6964   16.2751 C   0  0  0  0  0  0  0  0  0  0  0  0
   -0.6740  -10.8737   18.0482 C   0  0  0  0  0  0  0  0  0  0  0  0
    5.6751  -10.5870   29.7637 O   0  0  0  0  0  0  0  0  0  0  0  0
    1.7612   -5.6483   26.7172 C   0  0  0  0  0  0  0  0  0  0  0  0
    0.2221   -9.8326   17.4055 C   0  0  0  0  0  0  0  0  0  0  0  0
    4.3850   -9.0730   28.6745 C   0  0  0  0  0  0  0  0  0  0  0  0
  1  7  4  0
  1 22  4  0
  2 17  4  0
  2 20  4  0
  2 28  4  0
  3  6  1  0
  3 19  1  0
  4 19  1  0
  4 26  1  0
  5 17  4  0
  5 18  4  0
  6 20  1  0
  6 26  1  0
  7 24  4  0
  8 15  4  0
  8 24  4  0
  9 14  4  0
  9 21  4  0
 10 12  4  0
 10 27  4  0
 11 12  4  0
 11 23  4  0
 13 23  4  0
 13 27  4  0
 14 20  4  0
 15 22  4  0
 16 18  4  0
 16 25  2  0
 16 28  4  0
 21 28  4  0
 24 27  1  0
M  END
$$$$

 Created by Python create_sdf_string function

 28 31  0  0  0  0  0  0  0  0999 V2000
   -1.0054  -13.0622   19.1198 C   0  0  0  0  0  0  0  0  0  0  0  0
    3.1478   -8.5360   28.5161 C   0  0  0  0  0  0  0  0  0  0  0  0
    0.5798   -7.1906   27.9330 C   0  0  0  0  0  0  0  0  0  0  0  0
    0.3978   -5.1561   26.6955 C   0  0  0  0  0  0  0  0  0  0  0  0
    2.3063  -10.0533   30.0125 C   0  0  0  0  0  0  0  0  0  0  0  0
    1.8591   -6.8254   27.4685 N   0  0  0  0  0  0  0  0  0  0  0  0
   -0.2167  -12.1055   18.5568 C   0  0  0  0  0  0  0  0  0  0  0  0
   -2.0661  -10.6994   18.1916 C   0  0  0  0  0  0  0  0  0  0  0  0
    5.2703   -7.5691   27.1123 C   0  0  0  0  0  0  0  0  0  0  0  0
    1.6204   -9.9887   17.2935 C   0  0  0  0  0  0  0  0  0  0  0  0
    1.8931   -7.9265   16.2047 C   0  0  0  0  0  0  0  0  0  0  0  0
    2.4396   -9.0801   16.7132 C   0  0  0  0  0  0  0  0  0  0  0  0
   -0.2575   -8.6234   16.8582 C   0  0  0  0  0  0  0  0  0  0  0  0
    4.0614   -7.0367   27.0106 N   0  0  0  0  0  0  0  0  0  0  0  0
   -2.9133  -11.6279   18.7578 C   0  0  0  0  0  0  0  0  0  0  0  0
    4.5688  -10.1291   29.5758 C   0  0  0  0  0  0  0  0  0  0  0  0
    2.1008   -9.0410   29.1852 N   0  0  0  0  0  0  0  0  0  0  0  0
    3.4829  -10.5697   30.2091 N   0  0  0  0  0  0  0  0  0  0  0  0
   -0.3363   -6.1172   27.5628 C   0  0  0  0  0  0  0  0  0  0  0  0
    3.0331   -7.4400   27.6362 C   0  0  0  0  0  0  0  0  0  0  0  0
    5.4553   -8.5933   27.9644 C   0  0  0  0  0  0  0  0  0  0  0  0
   -2.3870  -12.8440   19.2512 C   0  0  0  0  0  0  0  0  0  0  0  0
    0.5331   -7.6964   16.2751 C   0  0  0  0  0  0  0  0  0  0  0  0
   -0.6740  -10.8737   18.0482 C   0  0  0  0  0  0  0  0  0  0  0  0
    5.6751  -10.5870   29.7637 O   0  0  0  0  0  0  0  0  0  0  0  0
    1.7612   -5.6483   26.7172 C   0  0  0  0  0  0  0  0  0  0  0  0
    0.2221   -9.8326   17.4055 C   0  0  0  0  0  0  0  0  0  0  0  0
    4.3850   -9.0730   28.6745 C   0  0  0  0  0  0  0  0  0  0  0  0
  1  7  4  0
  1 22  4  0
  2 17  4  0
  2 20  4  0
  2 28  4  0
  3  6  1  0
  3 19  1  0
  4 19  1  0
  4 26  1  0
  5 17  4  0
  5 18  4  0
  6 20  1  0
  6 26  1  0
  7 24  4  0
  8 15  4  0
  8 24  4  0
  9 14  4  0
  9 21  4  0
 10 12  4  0
 10 27  4  0
 11 12  4  0
 11 23  4  0
 13 23  4  0
 13 27  4  0
 14 20  4  0
 15 22  4  0
 16 18  4  0
 16 25  2  0
 16 28  4  0
 21 28  4  0
 24 27  1  0
M  END
$$$$

 Created by Python create_sdf_string function

 28 31  0  0  0  0  0  0  0  0999 V2000
   -1.0054  -13.0622   19.1198 C   0  0  0  0  0  0  0  0  0  0  0  0
    3.1478   -8.5360   28.5161 C   0  0  0  0  0  0  0  0  0  0  0  0
    0.5798   -7.1906   27.9330 C   0  0  0  0  0  0  0  0  0  0  0  0
    0.3978   -5.1561   26.6955 C   0  0  0  0  0  0  0  0  0  0  0  0
    2.3063  -10.0533   30.0125 C   0  0  0  0  0  0  0  0  0  0  0  0
    1.8591   -6.8254   27.4685 N   0  0  0  0  0  0  0  0  0  0  0  0
   -0.2167  -12.1055   18.5568 C   0  0  0  0  0  0  0  0  0  0  0  0
   -2.0661  -10.6994   18.1916 C   0  0  0  0  0  0  0  0  0  0  0  0
    5.2703   -7.5691   27.1123 C   0  0  0  0  0  0  0  0  0  0  0  0
    1.6204   -9.9887   17.2935 C   0  0  0  0  0  0  0  0  0  0  0  0
    1.8931   -7.9265   16.2047 C   0  0  0  0  0  0  0  0  0  0  0  0
    2.4396   -9.0801   16.7132 C   0  0  0  0  0  0  0  0  0  0  0  0
   -0.2575   -8.6234   16.8582 C   0  0  0  0  0  0  0  0  0  0  0  0
    4.0614   -7.0367   27.0106 N   0  0  0  0  0  0  0  0  0  0  0  0
   -2.9133  -11.6279   18.7578 C   0  0  0  0  0  0  0  0  0  0  0  0
    4.5688  -10.1291   29.5758 C   0  0  0  0  0  0  0  0  0  0  0  0
    2.1008   -9.0410   29.1852 N   0  0  0  0  0  0  0  0  0  0  0  0
    3.4829  -10.5697   30.2091 N   0  0  0  0  0  0  0  0  0  0  0  0
   -0.3363   -6.1172   27.5628 C   0  0  0  0  0  0  0  0  0  0  0  0
    3.0331   -7.4400   27.6362 C   0  0  0  0  0  0  0  0  0  0  0  0
    5.4553   -8.5933   27.9644 C   0  0  0  0  0  0  0  0  0  0  0  0
   -2.3870  -12.8440   19.2512 C   0  0  0  0  0  0  0  0  0  0  0  0
    0.5331   -7.6964   16.2751 C   0  0  0  0  0  0  0  0  0  0  0  0
   -0.6740  -10.8737   18.0482 C   0  0  0  0  0  0  0  0  0  0  0  0
    5.6751  -10.5870   29.7637 O   0  0  0  0  0  0  0  0  0  0  0  0
    1.7612   -5.6483   26.7172 C   0  0  0  0  0  0  0  0  0  0  0  0
    0.2221   -9.8326   17.4055 C   0  0  0  0  0  0  0  0  0  0  0  0
    4.3850   -9.0730   28.6745 C   0  0  0  0  0  0  0  0  0  0  0  0
  1  7  4  0
  1 22  4  0
  2 17  4  0
  2 20  4  0
  2 28  4  0
  3  6  1  0
  3 19  1  0
  4 19  1  0
  4 26  1  0
  5 17  4  0
  5 18  4  0
  6 20  1  0
  6 26  1  0
  7 24  4  0
  8 15  4  0
  8 24  4  0
  9 14  4  0
  9 21  4  0
 10 12  4  0
 10 27  4  0
 11 12  4  0
 11 23  4  0
 13 23  4  0
 13 27  4  0
 14 20  4  0
 15 22  4  0
 16 18  4  0
 16 25  2  0
 16 28  4  0
 21 28  4  0
 24 27  1  0
M  END
$$$$

 Created by Python create_sdf_string function

 28 31  0  0  0  0  0  0  0  0999 V2000
   -1.0054  -13.0622   19.1198 C   0  0  0  0  0  0  0  0  0  0  0  0
    3.1478   -8.5360   28.5161 C   0  0  0  0  0  0  0  0  0  0  0  0
    0.5798   -7.1906   27.9330 C   0  0  0  0  0  0  0  0  0  0  0  0
    0.3978   -5.1561   26.6955 C   0  0  0  0  0  0  0  0  0  0  0  0
    2.3063  -10.0533   30.0125 C   0  0  0  0  0  0  0  0  0  0  0  0
    1.8591   -6.8254   27.4685 N   0  0  0  0  0  0  0  0  0  0  0  0
   -0.2167  -12.1055   18.5568 C   0  0  0  0  0  0  0  0  0  0  0  0
   -2.0661  -10.6994   18.1916 C   0  0  0  0  0  0  0  0  0  0  0  0
    5.2703   -7.5691   27.1123 C   0  0  0  0  0  0  0  0  0  0  0  0
    1.6204   -9.9887   17.2935 C   0  0  0  0  0  0  0  0  0  0  0  0
    1.8931   -7.9265   16.2047 C   0  0  0  0  0  0  0  0  0  0  0  0
    2.4396   -9.0801   16.7132 C   0  0  0  0  0  0  0  0  0  0  0  0
   -0.2575   -8.6234   16.8582 C   0  0  0  0  0  0  0  0  0  0  0  0
    4.0614   -7.0367   27.0106 N   0  0  0  0  0  0  0  0  0  0  0  0
   -2.9133  -11.6279   18.7578 C   0  0  0  0  0  0  0  0  0  0  0  0
    4.5688  -10.1291   29.5758 C   0  0  0  0  0  0  0  0  0  0  0  0
    2.1008   -9.0410   29.1852 N   0  0  0  0  0  0  0  0  0  0  0  0
    3.4829  -10.5697   30.2091 N   0  0  0  0  0  0  0  0  0  0  0  0
   -0.3363   -6.1172   27.5628 C   0  0  0  0  0  0  0  0  0  0  0  0
    3.0331   -7.4400   27.6362 C   0  0  0  0  0  0  0  0  0  0  0  0
    5.4553   -8.5933   27.9644 C   0  0  0  0  0  0  0  0  0  0  0  0
   -2.3870  -12.8440   19.2512 C   0  0  0  0  0  0  0  0  0  0  0  0
    0.5331   -7.6964   16.2751 C   0  0  0  0  0  0  0  0  0  0  0  0
   -0.6740  -10.8737   18.0482 C   0  0  0  0  0  0  0  0  0  0  0  0
    5.6751  -10.5870   29.7637 O   0  0  0  0  0  0  0  0  0  0  0  0
    1.7612   -5.6483   26.7172 C   0  0  0  0  0  0  0  0  0  0  0  0
    0.2221   -9.8326   17.4055 C   0  0  0  0  0  0  0  0  0  0  0  0
    4.3850   -9.0730   28.6745 C   0  0  0  0  0  0  0  0  0  0  0  0
  1  7  4  0
  1 22  4  0
  2 17  4  0
  2 20  4  0
  2 28  4  0
  3  6  1  0
  3 19  1  0
  4 19  1  0
  4 26  1  0
  5 17  4  0
  5 18  4  0
  6 20  1  0
  6 26  1  0
  7 24  4  0
  8 15  4  0
  8 24  4  0
  9 14  4  0
  9 21  4  0
 10 12  4  0
 10 27  4  0
 11 12  4  0
 11 23  4  0
 13 23  4  0
 13 27  4  0
 14 20  4  0
 15 22  4  0
 16 18  4  0
 16 25  2  0
 16 28  4  0
 21 28  4  0
 24 27  1  0
M  END
$$$$

 Created by Python create_sdf_string function

 28 31  0  0  0  0  0  0  0  0999 V2000
   -1.0054  -13.0622   19.1198 C   0  0  0  0  0  0  0  0  0  0  0  0
    3.1478   -8.5360   28.5161 C   0  0  0  0  0  0  0  0  0  0  0  0
    0.5798   -7.1906   27.9330 C   0  0  0  0  0  0  0  0  0  0  0  0
    0.3978   -5.1561   26.6955 C   0  0  0  0  0  0  0  0  0  0  0  0
    2.3063  -10.0533   30.0125 C   0  0  0  0  0  0  0  0  0  0  0  0
    1.8591   -6.8254   27.4685 N   0  0  0  0  0  0  0  0  0  0  0  0
   -0.2167  -12.1055   18.5568 C   0  0  0  0  0  0  0  0  0  0  0  0
   -2.0661  -10.6994   18.1916 C   0  0  0  0  0  0  0  0  0  0  0  0
    5.2703   -7.5691   27.1123 C   0  0  0  0  0  0  0  0  0  0  0  0
    1.6204   -9.9887   17.2935 C   0  0  0  0  0  0  0  0  0  0  0  0
    1.8931   -7.9265   16.2047 C   0  0  0  0  0  0  0  0  0  0  0  0
    2.4396   -9.0801   16.7132 C   0  0  0  0  0  0  0  0  0  0  0  0
   -0.2575   -8.6234   16.8582 C   0  0  0  0  0  0  0  0  0  0  0  0
    4.0614   -7.0367   27.0106 N   0  0  0  0  0  0  0  0  0  0  0  0
   -2.9133  -11.6279   18.7578 C   0  0  0  0  0  0  0  0  0  0  0  0
    4.5688  -10.1291   29.5758 C   0  0  0  0  0  0  0  0  0  0  0  0
    2.1008   -9.0410   29.1852 N   0  0  0  0  0  0  0  0  0  0  0  0
    3.4829  -10.5697   30.2091 N   0  0  0  0  0  0  0  0  0  0  0  0
   -0.3363   -6.1172   27.5628 C   0  0  0  0  0  0  0  0  0  0  0  0
    3.0331   -7.4400   27.6362 C   0  0  0  0  0  0  0  0  0  0  0  0
    5.4553   -8.5933   27.9644 C   0  0  0  0  0  0  0  0  0  0  0  0
   -2.3870  -12.8440   19.2512 C   0  0  0  0  0  0  0  0  0  0  0  0
    0.5331   -7.6964   16.2751 C   0  0  0  0  0  0  0  0  0  0  0  0
   -0.6740  -10.8737   18.0482 C   0  0  0  0  0  0  0  0  0  0  0  0
    5.6751  -10.5870   29.7637 O   0  0  0  0  0  0  0  0  0  0  0  0
    1.7612   -5.6483   26.7172 C   0  0  0  0  0  0  0  0  0  0  0  0
    0.2221   -9.8326   17.4055 C   0  0  0  0  0  0  0  0  0  0  0  0
    4.3850   -9.0730   28.6745 C   0  0  0  0  0  0  0  0  0  0  0  0
  1  7  4  0
  1 22  4  0
  2 17  4  0
  2 20  4  0
  2 28  4  0
  3  6  1  0
  3 19  1  0
  4 19  1  0
  4 26  1  0
  5 17  4  0
  5 18  4  0
  6 20  1  0
  6 26  1  0
  7 24  4  0
  8 15  4  0
  8 24  4  0
  9 14  4  0
  9 21  4  0
 10 12  4  0
 10 27  4  0
 11 12  4  0
 11 23  4  0
 13 23  4  0
 13 27  4  0
 14 20  4  0
 15 22  4  0
 16 18  4  0
 16 25  2  0
 16 28  4  0
 21 28  4  0
 24 27  1  0
M  END
$$$$

 Created by Python create_sdf_string function

 28 31  0  0  0  0  0  0  0  0999 V2000
   -1.0054  -13.0622   19.1198 C   0  0  0  0  0  0  0  0  0  0  0  0
    3.1478   -8.5360   28.5161 C   0  0  0  0  0  0  0  0  0  0  0  0
    0.5798   -7.1906   27.9330 C   0  0  0  0  0  0  0  0  0  0  0  0
    0.3978   -5.1561   26.6955 C   0  0  0  0  0  0  0  0  0  0  0  0
    2.3063  -10.0533   30.0125 C   0  0  0  0  0  0  0  0  0  0  0  0
    1.8591   -6.8254   27.4685 N   0  0  0  0  0  0  0  0  0  0  0  0
   -0.2167  -12.1055   18.5568 C   0  0  0  0  0  0  0  0  0  0  0  0
   -2.0661  -10.6994   18.1916 C   0  0  0  0  0  0  0  0  0  0  0  0
    5.2703   -7.5691   27.1123 C   0  0  0  0  0  0  0  0  0  0  0  0
    1.6204   -9.9887   17.2935 C   0  0  0  0  0  0  0  0  0  0  0  0
    1.8931   -7.9265   16.2047 C   0  0  0  0  0  0  0  0  0  0  0  0
    2.4396   -9.0801   16.7132 C   0  0  0  0  0  0  0  0  0  0  0  0
   -0.2575   -8.6234   16.8582 C   0  0  0  0  0  0  0  0  0  0  0  0
    4.0614   -7.0367   27.0106 N   0  0  0  0  0  0  0  0  0  0  0  0
   -2.9133  -11.6279   18.7578 C   0  0  0  0  0  0  0  0  0  0  0  0
    4.5688  -10.1291   29.5758 C   0  0  0  0  0  0  0  0  0  0  0  0
    2.1008   -9.0410   29.1852 N   0  0  0  0  0  0  0  0  0  0  0  0
    3.4829  -10.5697   30.2091 N   0  0  0  0  0  0  0  0  0  0  0  0
   -0.3363   -6.1172   27.5628 C   0  0  0  0  0  0  0  0  0  0  0  0
    3.0331   -7.4400   27.6362 C   0  0  0  0  0  0  0  0  0  0  0  0
    5.4553   -8.5933   27.9644 C   0  0  0  0  0  0  0  0  0  0  0  0
   -2.3870  -12.8440   19.2512 C   0  0  0  0  0  0  0  0  0  0  0  0
    0.5331   -7.6964   16.2751 C   0  0  0  0  0  0  0  0  0  0  0  0
   -0.6740  -10.8737   18.0482 C   0  0  0  0  0  0  0  0  0  0  0  0
    5.6751  -10.5870   29.7637 O   0  0  0  0  0  0  0  0  0  0  0  0
    1.7612   -5.6483   26.7172 C   0  0  0  0  0  0  0  0  0  0  0  0
    0.2221   -9.8326   17.4055 C   0  0  0  0  0  0  0  0  0  0  0  0
    4.3850   -9.0730   28.6745 C   0  0  0  0  0  0  0  0  0  0  0  0
  1  7  4  0
  1 22  4  0
  2 17  4  0
  2 20  4  0
  2 28  4  0
  3  6  1  0
  3 19  1  0
  4 19  1  0
  4 26  1  0
  5 17  4  0
  5 18  4  0
  6 20  1  0
  6 26  1  0
  7 24  4  0
  8 15  4  0
  8 24  4  0
  9 14  4  0
  9 21  4  0
 10 12  4  0
 10 27  4  0
 11 12  4  0
 11 23  4  0
 13 23  4  0
 13 27  4  0
 14 20  4  0
 15 22  4  0
 16 18  4  0
 16 25  2  0
 16 28  4  0
 21 28  4  0
 24 27  1  0
M  END
$$$$

 Created by Python create_sdf_string function

 28 31  0  0  0  0  0  0  0  0999 V2000
   -1.0054  -13.0622   19.1198 C   0  0  0  0  0  0  0  0  0  0  0  0
    3.1478   -8.5360   28.5161 C   0  0  0  0  0  0  0  0  0  0  0  0
    0.5798   -7.1906   27.9330 C   0  0  0  0  0  0  0  0  0  0  0  0
    0.3978   -5.1561   26.6955 C   0  0  0  0  0  0  0  0  0  0  0  0
    2.3063  -10.0533   30.0125 C   0  0  0  0  0  0  0  0  0  0  0  0
    1.8591   -6.8254   27.4685 N   0  0  0  0  0  0  0  0  0  0  0  0
   -0.2167  -12.1055   18.5568 C   0  0  0  0  0  0  0  0  0  0  0  0
   -2.0661  -10.6994   18.1916 C   0  0  0  0  0  0  0  0  0  0  0  0
    5.2703   -7.5691   27.1123 C   0  0  0  0  0  0  0  0  0  0  0  0
    1.6204   -9.9887   17.2935 C   0  0  0  0  0  0  0  0  0  0  0  0
    1.8931   -7.9265   16.2047 C   0  0  0  0  0  0  0  0  0  0  0  0
    2.4396   -9.0801   16.7132 C   0  0  0  0  0  0  0  0  0  0  0  0
   -0.2575   -8.6234   16.8582 C   0  0  0  0  0  0  0  0  0  0  0  0
    4.0614   -7.0367   27.0106 N   0  0  0  0  0  0  0  0  0  0  0  0
   -2.9133  -11.6279   18.7578 C   0  0  0  0  0  0  0  0  0  0  0  0
    4.5688  -10.1291   29.5758 C   0  0  0  0  0  0  0  0  0  0  0  0
    2.1008   -9.0410   29.1852 N   0  0  0  0  0  0  0  0  0  0  0  0
    3.4829  -10.5697   30.2091 N   0  0  0  0  0  0  0  0  0  0  0  0
   -0.3363   -6.1172   27.5628 C   0  0  0  0  0  0  0  0  0  0  0  0
    3.0331   -7.4400   27.6362 C   0  0  0  0  0  0  0  0  0  0  0  0
    5.4553   -8.5933   27.9644 C   0  0  0  0  0  0  0  0  0  0  0  0
   -2.3870  -12.8440   19.2512 C   0  0  0  0  0  0  0  0  0  0  0  0
    0.5331   -7.6964   16.2751 C   0  0  0  0  0  0  0  0  0  0  0  0
   -0.6740  -10.8737   18.0482 C   0  0  0  0  0  0  0  0  0  0  0  0
    5.6751  -10.5870   29.7637 O   0  0  0  0  0  0  0  0  0  0  0  0
    1.7612   -5.6483   26.7172 C   0  0  0  0  0  0  0  0  0  0  0  0
    0.2221   -9.8326   17.4055 C   0  0  0  0  0  0  0  0  0  0  0  0
    4.3850   -9.0730   28.6745 C   0  0  0  0  0  0  0  0  0  0  0  0
  1  7  4  0
  1 22  4  0
  2 17  4  0
  2 20  4  0
  2 28  4  0
  3  6  1  0
  3 19  1  0
  4 19  1  0
  4 26  1  0
  5 17  4  0
  5 18  4  0
  6 20  1  0
  6 26  1  0
  7 24  4  0
  8 15  4  0
  8 24  4  0
  9 14  4  0
  9 21  4  0
 10 12  4  0
 10 27  4  0
 11 12  4  0
 11 23  4  0
 13 23  4  0
 13 27  4  0
 14 20  4  0
 15 22  4  0
 16 18  4  0
 16 25  2  0
 16 28  4  0
 21 28  4  0
 24 27  1  0
M  END
$$$$

 Created by Python create_sdf_string function

 28 31  0  0  0  0  0  0  0  0999 V2000
   -1.0054  -13.0622   19.1198 C   0  0  0  0  0  0  0  0  0  0  0  0
    3.1478   -8.5360   28.5161 C   0  0  0  0  0  0  0  0  0  0  0  0
    0.5798   -7.1906   27.9330 C   0  0  0  0  0  0  0  0  0  0  0  0
    0.3978   -5.1561   26.6955 C   0  0  0  0  0  0  0  0  0  0  0  0
    2.3063  -10.0533   30.0125 C   0  0  0  0  0  0  0  0  0  0  0  0
    1.8591   -6.8254   27.4685 N   0  0  0  0  0  0  0  0  0  0  0  0
   -0.2167  -12.1055   18.5568 C   0  0  0  0  0  0  0  0  0  0  0  0
   -2.0661  -10.6994   18.1916 C   0  0  0  0  0  0  0  0  0  0  0  0
    5.2703   -7.5691   27.1123 C   0  0  0  0  0  0  0  0  0  0  0  0
    1.6204   -9.9887   17.2935 C   0  0  0  0  0  0  0  0  0  0  0  0
    1.8931   -7.9265   16.2047 C   0  0  0  0  0  0  0  0  0  0  0  0
    2.4396   -9.0801   16.7132 C   0  0  0  0  0  0  0  0  0  0  0  0
   -0.2575   -8.6234   16.8582 C   0  0  0  0  0  0  0  0  0  0  0  0
    4.0614   -7.0367   27.0106 N   0  0  0  0  0  0  0  0  0  0  0  0
   -2.9133  -11.6279   18.7578 C   0  0  0  0  0  0  0  0  0  0  0  0
    4.5688  -10.1291   29.5758 C   0  0  0  0  0  0  0  0  0  0  0  0
    2.1008   -9.0410   29.1852 N   0  0  0  0  0  0  0  0  0  0  0  0
    3.4829  -10.5697   30.2091 N   0  0  0  0  0  0  0  0  0  0  0  0
   -0.3363   -6.1172   27.5628 C   0  0  0  0  0  0  0  0  0  0  0  0
    3.0331   -7.4400   27.6362 C   0  0  0  0  0  0  0  0  0  0  0  0
    5.4553   -8.5933   27.9644 C   0  0  0  0  0  0  0  0  0  0  0  0
   -2.3870  -12.8440   19.2512 C   0  0  0  0  0  0  0  0  0  0  0  0
    0.5331   -7.6964   16.2751 C   0  0  0  0  0  0  0  0  0  0  0  0
   -0.6740  -10.8737   18.0482 C   0  0  0  0  0  0  0  0  0  0  0  0
    5.6751  -10.5870   29.7637 O   0  0  0  0  0  0  0  0  0  0  0  0
    1.7612   -5.6483   26.7172 C   0  0  0  0  0  0  0  0  0  0  0  0
    0.2221   -9.8326   17.4055 C   0  0  0  0  0  0  0  0  0  0  0  0
    4.3850   -9.0730   28.6745 C   0  0  0  0  0  0  0  0  0  0  0  0
  1  7  4  0
  1 22  4  0
  2 17  4  0
  2 20  4  0
  2 28  4  0
  3  6  1  0
  3 19  1  0
  4 19  1  0
  4 26  1  0
  5 17  4  0
  5 18  4  0
  6 20  1  0
  6 26  1  0
  7 24  4  0
  8 15  4  0
  8 24  4  0
  9 14  4  0
  9 21  4  0
 10 12  4  0
 10 27  4  0
 11 12  4  0
 11 23  4  0
 13 23  4  0
 13 27  4  0
 14 20  4  0
 15 22  4  0
 16 18  4  0
 16 25  2  0
 16 28  4  0
 21 28  4  0
 24 27  1  0
M  END
$$$$

 Created by Python create_sdf_string function

 28 31  0  0  0  0  0  0  0  0999 V2000
   -1.0054  -13.0622   19.1198 C   0  0  0  0  0  0  0  0  0  0  0  0
    3.1478   -8.5360   28.5161 C   0  0  0  0  0  0  0  0  0  0  0  0
    0.5798   -7.1906   27.9330 C   0  0  0  0  0  0  0  0  0  0  0  0
    0.3978   -5.1561   26.6955 C   0  0  0  0  0  0  0  0  0  0  0  0
    2.3063  -10.0533   30.0125 C   0  0  0  0  0  0  0  0  0  0  0  0
    1.8591   -6.8254   27.4685 N   0  0  0  0  0  0  0  0  0  0  0  0
   -0.2167  -12.1055   18.5568 C   0  0  0  0  0  0  0  0  0  0  0  0
   -2.0661  -10.6994   18.1916 C   0  0  0  0  0  0  0  0  0  0  0  0
    5.2703   -7.5691   27.1123 C   0  0  0  0  0  0  0  0  0  0  0  0
    1.6204   -9.9887   17.2935 C   0  0  0  0  0  0  0  0  0  0  0  0
    1.8931   -7.9265   16.2047 C   0  0  0  0  0  0  0  0  0  0  0  0
    2.4396   -9.0801   16.7132 C   0  0  0  0  0  0  0  0  0  0  0  0
   -0.2575   -8.6234   16.8582 C   0  0  0  0  0  0  0  0  0  0  0  0
    4.0614   -7.0367   27.0106 N   0  0  0  0  0  0  0  0  0  0  0  0
   -2.9133  -11.6279   18.7578 C   0  0  0  0  0  0  0  0  0  0  0  0
    4.5688  -10.1291   29.5758 C   0  0  0  0  0  0  0  0  0  0  0  0
    2.1008   -9.0410   29.1852 N   0  0  0  0  0  0  0  0  0  0  0  0
    3.4829  -10.5697   30.2091 N   0  0  0  0  0  0  0  0  0  0  0  0
   -0.3363   -6.1172   27.5628 C   0  0  0  0  0  0  0  0  0  0  0  0
    3.0331   -7.4400   27.6362 C   0  0  0  0  0  0  0  0  0  0  0  0
    5.4553   -8.5933   27.9644 C   0  0  0  0  0  0  0  0  0  0  0  0
   -2.3870  -12.8440   19.2512 C   0  0  0  0  0  0  0  0  0  0  0  0
    0.5331   -7.6964   16.2751 C   0  0  0  0  0  0  0  0  0  0  0  0
   -0.6740  -10.8737   18.0482 C   0  0  0  0  0  0  0  0  0  0  0  0
    5.6751  -10.5870   29.7637 O   0  0  0  0  0  0  0  0  0  0  0  0
    1.7612   -5.6483   26.7172 C   0  0  0  0  0  0  0  0  0  0  0  0
    0.2221   -9.8326   17.4055 C   0  0  0  0  0  0  0  0  0  0  0  0
    4.3850   -9.0730   28.6745 C   0  0  0  0  0  0  0  0  0  0  0  0
  1  7  4  0
  1 22  4  0
  2 17  4  0
  2 20  4  0
  2 28  4  0
  3  6  1  0
  3 19  1  0
  4 19  1  0
  4 26  1  0
  5 17  4  0
  5 18  4  0
  6 20  1  0
  6 26  1  0
  7 24  4  0
  8 15  4  0
  8 24  4  0
  9 14  4  0
  9 21  4  0
 10 12  4  0
 10 27  4  0
 11 12  4  0
 11 23  4  0
 13 23  4  0
 13 27  4  0
 14 20  4  0
 15 22  4  0
 16 18  4  0
 16 25  2  0
 16 28  4  0
 21 28  4  0
 24 27  1  0
M  END
$$$$

 Created by Python create_sdf_string function

 28 31  0  0  0  0  0  0  0  0999 V2000
   -1.0054  -13.0622   19.1198 C   0  0  0  0  0  0  0  0  0  0  0  0
    3.1478   -8.5360   28.5161 C   0  0  0  0  0  0  0  0  0  0  0  0
    0.5798   -7.1906   27.9330 C   0  0  0  0  0  0  0  0  0  0  0  0
    0.3978   -5.1561   26.6955 C   0  0  0  0  0  0  0  0  0  0  0  0
    2.3063  -10.0533   30.0125 C   0  0  0  0  0  0  0  0  0  0  0  0
    1.8591   -6.8254   27.4685 N   0  0  0  0  0  0  0  0  0  0  0  0
   -0.2167  -12.1055   18.5568 C   0  0  0  0  0  0  0  0  0  0  0  0
   -2.0661  -10.6994   18.1916 C   0  0  0  0  0  0  0  0  0  0  0  0
    5.2703   -7.5691   27.1123 C   0  0  0  0  0  0  0  0  0  0  0  0
    1.6204   -9.9887   17.2935 C   0  0  0  0  0  0  0  0  0  0  0  0
    1.8931   -7.9265   16.2047 C   0  0  0  0  0  0  0  0  0  0  0  0
    2.4396   -9.0801   16.7132 C   0  0  0  0  0  0  0  0  0  0  0  0
   -0.2575   -8.6234   16.8582 C   0  0  0  0  0  0  0  0  0  0  0  0
    4.0614   -7.0367   27.0106 N   0  0  0  0  0  0  0  0  0  0  0  0
   -2.9133  -11.6279   18.7578 C   0  0  0  0  0  0  0  0  0  0  0  0
    4.5688  -10.1291   29.5758 C   0  0  0  0  0  0  0  0  0  0  0  0
    2.1008   -9.0410   29.1852 N   0  0  0  0  0  0  0  0  0  0  0  0
    3.4829  -10.5697   30.2091 N   0  0  0  0  0  0  0  0  0  0  0  0
   -0.3363   -6.1172   27.5628 C   0  0  0  0  0  0  0  0  0  0  0  0
    3.0331   -7.4400   27.6362 C   0  0  0  0  0  0  0  0  0  0  0  0
    5.4553   -8.5933   27.9644 C   0  0  0  0  0  0  0  0  0  0  0  0
   -2.3870  -12.8440   19.2512 C   0  0  0  0  0  0  0  0  0  0  0  0
    0.5331   -7.6964   16.2751 C   0  0  0  0  0  0  0  0  0  0  0  0
   -0.6740  -10.8737   18.0482 C   0  0  0  0  0  0  0  0  0  0  0  0
    5.6751  -10.5870   29.7637 O   0  0  0  0  0  0  0  0  0  0  0  0
    1.7612   -5.6483   26.7172 C   0  0  0  0  0  0  0  0  0  0  0  0
    0.2221   -9.8326   17.4055 C   0  0  0  0  0  0  0  0  0  0  0  0
    4.3850   -9.0730   28.6745 C   0  0  0  0  0  0  0  0  0  0  0  0
  1  7  4  0
  1 22  4  0
  2 17  4  0
  2 20  4  0
  2 28  4  0
  3  6  1  0
  3 19  1  0
  4 19  1  0
  4 26  1  0
  5 17  4  0
  5 18  4  0
  6 20  1  0
  6 26  1  0
  7 24  4  0
  8 15  4  0
  8 24  4  0
  9 14  4  0
  9 21  4  0
 10 12  4  0
 10 27  4  0
 11 12  4  0
 11 23  4  0
 13 23  4  0
 13 27  4  0
 14 20  4  0
 15 22  4  0
 16 18  4  0
 16 25  2  0
 16 28  4  0
 21 28  4  0
 24 27  1  0
M  END
$$$$

 Created by Python create_sdf_string function

 28 31  0  0  0  0  0  0  0  0999 V2000
   -1.0054  -13.0622   19.1198 C   0  0  0  0  0  0  0  0  0  0  0  0
    3.1478   -8.5360   28.5161 C   0  0  0  0  0  0  0  0  0  0  0  0
    0.5798   -7.1906   27.9330 C   0  0  0  0  0  0  0  0  0  0  0  0
    0.3978   -5.1561   26.6955 C   0  0  0  0  0  0  0  0  0  0  0  0
    2.3063  -10.0533   30.0125 C   0  0  0  0  0  0  0  0  0  0  0  0
    1.8591   -6.8254   27.4685 N   0  0  0  0  0  0  0  0  0  0  0  0
   -0.2167  -12.1055   18.5568 C   0  0  0  0  0  0  0  0  0  0  0  0
   -2.0661  -10.6994   18.1916 C   0  0  0  0  0  0  0  0  0  0  0  0
    5.2703   -7.5691   27.1123 C   0  0  0  0  0  0  0  0  0  0  0  0
    1.6204   -9.9887   17.2935 C   0  0  0  0  0  0  0  0  0  0  0  0
    1.8931   -7.9265   16.2047 C   0  0  0  0  0  0  0  0  0  0  0  0
    2.4396   -9.0801   16.7132 C   0  0  0  0  0  0  0  0  0  0  0  0
   -0.2575   -8.6234   16.8582 C   0  0  0  0  0  0  0  0  0  0  0  0
    4.0614   -7.0367   27.0106 N   0  0  0  0  0  0  0  0  0  0  0  0
   -2.9133  -11.6279   18.7578 C   0  0  0  0  0  0  0  0  0  0  0  0
    4.5688  -10.1291   29.5758 C   0  0  0  0  0  0  0  0  0  0  0  0
    2.1008   -9.0410   29.1852 N   0  0  0  0  0  0  0  0  0  0  0  0
    3.4829  -10.5697   30.2091 N   0  0  0  0  0  0  0  0  0  0  0  0
   -0.3363   -6.1172   27.5628 C   0  0  0  0  0  0  0  0  0  0  0  0
    3.0331   -7.4400   27.6362 C   0  0  0  0  0  0  0  0  0  0  0  0
    5.4553   -8.5933   27.9644 C   0  0  0  0  0  0  0  0  0  0  0  0
   -2.3870  -12.8440   19.2512 C   0  0  0  0  0  0  0  0  0  0  0  0
    0.5331   -7.6964   16.2751 C   0  0  0  0  0  0  0  0  0  0  0  0
   -0.6740  -10.8737   18.0482 C   0  0  0  0  0  0  0  0  0  0  0  0
    5.6751  -10.5870   29.7637 O   0  0  0  0  0  0  0  0  0  0  0  0
    1.7612   -5.6483   26.7172 C   0  0  0  0  0  0  0  0  0  0  0  0
    0.2221   -9.8326   17.4055 C   0  0  0  0  0  0  0  0  0  0  0  0
    4.3850   -9.0730   28.6745 C   0  0  0  0  0  0  0  0  0  0  0  0
  1  7  4  0
  1 22  4  0
  2 17  4  0
  2 20  4  0
  2 28  4  0
  3  6  1  0
  3 19  1  0
  4 19  1  0
  4 26  1  0
  5 17  4  0
  5 18  4  0
  6 20  1  0
  6 26  1  0
  7 24  4  0
  8 15  4  0
  8 24  4  0
  9 14  4  0
  9 21  4  0
 10 12  4  0
 10 27  4  0
 11 12  4  0
 11 23  4  0
 13 23  4  0
 13 27  4  0
 14 20  4  0
 15 22  4  0
 16 18  4  0
 16 25  2  0
 16 28  4  0
 21 28  4  0
 24 27  1  0
M  END
$$$$

 Created by Python create_sdf_string function

 28 31  0  0  0  0  0  0  0  0999 V2000
   -1.0054  -13.0622   19.1198 C   0  0  0  0  0  0  0  0  0  0  0  0
    3.1478   -8.5360   28.5161 C   0  0  0  0  0  0  0  0  0  0  0  0
    0.5798   -7.1906   27.9330 C   0  0  0  0  0  0  0  0  0  0  0  0
    0.3978   -5.1561   26.6955 C   0  0  0  0  0  0  0  0  0  0  0  0
    2.3063  -10.0533   30.0125 C   0  0  0  0  0  0  0  0  0  0  0  0
    1.8591   -6.8254   27.4685 N   0  0  0  0  0  0  0  0  0  0  0  0
   -0.2167  -12.1055   18.5568 C   0  0  0  0  0  0  0  0  0  0  0  0
   -2.0661  -10.6994   18.1916 C   0  0  0  0  0  0  0  0  0  0  0  0
    5.2703   -7.5691   27.1123 C   0  0  0  0  0  0  0  0  0  0  0  0
    1.6204   -9.9887   17.2935 C   0  0  0  0  0  0  0  0  0  0  0  0
    1.8931   -7.9265   16.2047 C   0  0  0  0  0  0  0  0  0  0  0  0
    2.4396   -9.0801   16.7132 C   0  0  0  0  0  0  0  0  0  0  0  0
   -0.2575   -8.6234   16.8582 C   0  0  0  0  0  0  0  0  0  0  0  0
    4.0614   -7.0367   27.0106 N   0  0  0  0  0  0  0  0  0  0  0  0
   -2.9133  -11.6279   18.7578 C   0  0  0  0  0  0  0  0  0  0  0  0
    4.5688  -10.1291   29.5758 C   0  0  0  0  0  0  0  0  0  0  0  0
    2.1008   -9.0410   29.1852 N   0  0  0  0  0  0  0  0  0  0  0  0
    3.4829  -10.5697   30.2091 N   0  0  0  0  0  0  0  0  0  0  0  0
   -0.3363   -6.1172   27.5628 C   0  0  0  0  0  0  0  0  0  0  0  0
    3.0331   -7.4400   27.6362 C   0  0  0  0  0  0  0  0  0  0  0  0
    5.4553   -8.5933   27.9644 C   0  0  0  0  0  0  0  0  0  0  0  0
   -2.3870  -12.8440   19.2512 C   0  0  0  0  0  0  0  0  0  0  0  0
    0.5331   -7.6964   16.2751 C   0  0  0  0  0  0  0  0  0  0  0  0
   -0.6740  -10.8737   18.0482 C   0  0  0  0  0  0  0  0  0  0  0  0
    5.6751  -10.5870   29.7637 O   0  0  0  0  0  0  0  0  0  0  0  0
    1.7612   -5.6483   26.7172 C   0  0  0  0  0  0  0  0  0  0  0  0
    0.2221   -9.8326   17.4055 C   0  0  0  0  0  0  0  0  0  0  0  0
    4.3850   -9.0730   28.6745 C   0  0  0  0  0  0  0  0  0  0  0  0
  1  7  4  0
  1 22  4  0
  2 17  4  0
  2 20  4  0
  2 28  4  0
  3  6  1  0
  3 19  1  0
  4 19  1  0
  4 26  1  0
  5 17  4  0
  5 18  4  0
  6 20  1  0
  6 26  1  0
  7 24  4  0
  8 15  4  0
  8 24  4  0
  9 14  4  0
  9 21  4  0
 10 12  4  0
 10 27  4  0
 11 12  4  0
 11 23  4  0
 13 23  4  0
 13 27  4  0
 14 20  4  0
 15 22  4  0
 16 18  4  0
 16 25  2  0
 16 28  4  0
 21 28  4  0
 24 27  1  0
M  END
$$$$

 Created by Python create_sdf_string function

 28 31  0  0  0  0  0  0  0  0999 V2000
   -1.0054  -13.0622   19.1198 C   0  0  0  0  0  0  0  0  0  0  0  0
    3.1478   -8.5360   28.5161 C   0  0  0  0  0  0  0  0  0  0  0  0
    0.5798   -7.1906   27.9330 C   0  0  0  0  0  0  0  0  0  0  0  0
    0.3978   -5.1561   26.6955 C   0  0  0  0  0  0  0  0  0  0  0  0
    2.3063  -10.0533   30.0125 C   0  0  0  0  0  0  0  0  0  0  0  0
    1.8591   -6.8254   27.4685 N   0  0  0  0  0  0  0  0  0  0  0  0
   -0.2167  -12.1055   18.5568 C   0  0  0  0  0  0  0  0  0  0  0  0
   -2.0661  -10.6994   18.1916 C   0  0  0  0  0  0  0  0  0  0  0  0
    5.2703   -7.5691   27.1123 C   0  0  0  0  0  0  0  0  0  0  0  0
    1.6204   -9.9887   17.2935 C   0  0  0  0  0  0  0  0  0  0  0  0
    1.8931   -7.9265   16.2047 C   0  0  0  0  0  0  0  0  0  0  0  0
    2.4396   -9.0801   16.7132 C   0  0  0  0  0  0  0  0  0  0  0  0
   -0.2575   -8.6234   16.8582 C   0  0  0  0  0  0  0  0  0  0  0  0
    4.0614   -7.0367   27.0106 N   0  0  0  0  0  0  0  0  0  0  0  0
   -2.9133  -11.6279   18.7578 C   0  0  0  0  0  0  0  0  0  0  0  0
    4.5688  -10.1291   29.5758 C   0  0  0  0  0  0  0  0  0  0  0  0
    2.1008   -9.0410   29.1852 N   0  0  0  0  0  0  0  0  0  0  0  0
    3.4829  -10.5697   30.2091 N   0  0  0  0  0  0  0  0  0  0  0  0
   -0.3363   -6.1172   27.5628 C   0  0  0  0  0  0  0  0  0  0  0  0
    3.0331   -7.4400   27.6362 C   0  0  0  0  0  0  0  0  0  0  0  0
    5.4553   -8.5933   27.9644 C   0  0  0  0  0  0  0  0  0  0  0  0
   -2.3870  -12.8440   19.2512 C   0  0  0  0  0  0  0  0  0  0  0  0
    0.5331   -7.6964   16.2751 C   0  0  0  0  0  0  0  0  0  0  0  0
   -0.6740  -10.8737   18.0482 C   0  0  0  0  0  0  0  0  0  0  0  0
    5.6751  -10.5870   29.7637 O   0  0  0  0  0  0  0  0  0  0  0  0
    1.7612   -5.6483   26.7172 C   0  0  0  0  0  0  0  0  0  0  0  0
    0.2221   -9.8326   17.4055 C   0  0  0  0  0  0  0  0  0  0  0  0
    4.3850   -9.0730   28.6745 C   0  0  0  0  0  0  0  0  0  0  0  0
  1  7  4  0
  1 22  4  0
  2 17  4  0
  2 20  4  0
  2 28  4  0
  3  6  1  0
  3 19  1  0
  4 19  1  0
  4 26  1  0
  5 17  4  0
  5 18  4  0
  6 20  1  0
  6 26  1  0
  7 24  4  0
  8 15  4  0
  8 24  4  0
  9 14  4  0
  9 21  4  0
 10 12  4  0
 10 27  4  0
 11 12  4  0
 11 23  4  0
 13 23  4  0
 13 27  4  0
 14 20  4  0
 15 22  4  0
 16 18  4  0
 16 25  2  0
 16 28  4  0
 21 28  4  0
 24 27  1  0
M  END
$$$$

 Created by Python create_sdf_string function

 28 31  0  0  0  0  0  0  0  0999 V2000
   -1.0054  -13.0622   19.1198 C   0  0  0  0  0  0  0  0  0  0  0  0
    3.1478   -8.5360   28.5161 C   0  0  0  0  0  0  0  0  0  0  0  0
    0.5798   -7.1906   27.9330 C   0  0  0  0  0  0  0  0  0  0  0  0
    0.3978   -5.1561   26.6955 C   0  0  0  0  0  0  0  0  0  0  0  0
    2.3063  -10.0533   30.0125 C   0  0  0  0  0  0  0  0  0  0  0  0
    1.8591   -6.8254   27.4685 N   0  0  0  0  0  0  0  0  0  0  0  0
   -0.2167  -12.1055   18.5568 C   0  0  0  0  0  0  0  0  0  0  0  0
   -2.0661  -10.6994   18.1916 C   0  0  0  0  0  0  0  0  0  0  0  0
    5.2703   -7.5691   27.1123 C   0  0  0  0  0  0  0  0  0  0  0  0
    1.6204   -9.9887   17.2935 C   0  0  0  0  0  0  0  0  0  0  0  0
    1.8931   -7.9265   16.2047 C   0  0  0  0  0  0  0  0  0  0  0  0
    2.4396   -9.0801   16.7132 C   0  0  0  0  0  0  0  0  0  0  0  0
   -0.2575   -8.6234   16.8582 C   0  0  0  0  0  0  0  0  0  0  0  0
    4.0614   -7.0367   27.0106 N   0  0  0  0  0  0  0  0  0  0  0  0
   -2.9133  -11.6279   18.7578 C   0  0  0  0  0  0  0  0  0  0  0  0
    4.5688  -10.1291   29.5758 C   0  0  0  0  0  0  0  0  0  0  0  0
    2.1008   -9.0410   29.1852 N   0  0  0  0  0  0  0  0  0  0  0  0
    3.4829  -10.5697   30.2091 N   0  0  0  0  0  0  0  0  0  0  0  0
   -0.3363   -6.1172   27.5628 C   0  0  0  0  0  0  0  0  0  0  0  0
    3.0331   -7.4400   27.6362 C   0  0  0  0  0  0  0  0  0  0  0  0
    5.4553   -8.5933   27.9644 C   0  0  0  0  0  0  0  0  0  0  0  0
   -2.3870  -12.8440   19.2512 C   0  0  0  0  0  0  0  0  0  0  0  0
    0.5331   -7.6964   16.2751 C   0  0  0  0  0  0  0  0  0  0  0  0
   -0.6740  -10.8737   18.0482 C   0  0  0  0  0  0  0  0  0  0  0  0
    5.6751  -10.5870   29.7637 O   0  0  0  0  0  0  0  0  0  0  0  0
    1.7612   -5.6483   26.7172 C   0  0  0  0  0  0  0  0  0  0  0  0
    0.2221   -9.8326   17.4055 C   0  0  0  0  0  0  0  0  0  0  0  0
    4.3850   -9.0730   28.6745 C   0  0  0  0  0  0  0  0  0  0  0  0
  1  7  4  0
  1 22  4  0
  2 17  4  0
  2 20  4  0
  2 28  4  0
  3  6  1  0
  3 19  1  0
  4 19  1  0
  4 26  1  0
  5 17  4  0
  5 18  4  0
  6 20  1  0
  6 26  1  0
  7 24  4  0
  8 15  4  0
  8 24  4  0
  9 14  4  0
  9 21  4  0
 10 12  4  0
 10 27  4  0
 11 12  4  0
 11 23  4  0
 13 23  4  0
 13 27  4  0
 14 20  4  0
 15 22  4  0
 16 18  4  0
 16 25  2  0
 16 28  4  0
 21 28  4  0
 24 27  1  0
M  END
$$$$

 Created by Python create_sdf_string function

 28 31  0  0  0  0  0  0  0  0999 V2000
   -1.0054  -13.0622   19.1198 C   0  0  0  0  0  0  0  0  0  0  0  0
    3.1478   -8.5360   28.5161 C   0  0  0  0  0  0  0  0  0  0  0  0
    0.5798   -7.1906   27.9330 C   0  0  0  0  0  0  0  0  0  0  0  0
    0.3978   -5.1561   26.6955 C   0  0  0  0  0  0  0  0  0  0  0  0
    2.3063  -10.0533   30.0125 C   0  0  0  0  0  0  0  0  0  0  0  0
    1.8591   -6.8254   27.4685 N   0  0  0  0  0  0  0  0  0  0  0  0
   -0.2167  -12.1055   18.5568 C   0  0  0  0  0  0  0  0  0  0  0  0
   -2.0661  -10.6994   18.1916 C   0  0  0  0  0  0  0  0  0  0  0  0
    5.2703   -7.5691   27.1123 C   0  0  0  0  0  0  0  0  0  0  0  0
    1.6204   -9.9887   17.2935 C   0  0  0  0  0  0  0  0  0  0  0  0
    1.8931   -7.9265   16.2047 C   0  0  0  0  0  0  0  0  0  0  0  0
    2.4396   -9.0801   16.7132 C   0  0  0  0  0  0  0  0  0  0  0  0
   -0.2575   -8.6234   16.8582 C   0  0  0  0  0  0  0  0  0  0  0  0
    4.0614   -7.0367   27.0106 N   0  0  0  0  0  0  0  0  0  0  0  0
   -2.9133  -11.6279   18.7578 C   0  0  0  0  0  0  0  0  0  0  0  0
    4.5688  -10.1291   29.5758 C   0  0  0  0  0  0  0  0  0  0  0  0
    2.1008   -9.0410   29.1852 N   0  0  0  0  0  0  0  0  0  0  0  0
    3.4829  -10.5697   30.2091 N   0  0  0  0  0  0  0  0  0  0  0  0
   -0.3363   -6.1172   27.5628 C   0  0  0  0  0  0  0  0  0  0  0  0
    3.0331   -7.4400   27.6362 C   0  0  0  0  0  0  0  0  0  0  0  0
    5.4553   -8.5933   27.9644 C   0  0  0  0  0  0  0  0  0  0  0  0
   -2.3870  -12.8440   19.2512 C   0  0  0  0  0  0  0  0  0  0  0  0
    0.5331   -7.6964   16.2751 C   0  0  0  0  0  0  0  0  0  0  0  0
   -0.6740  -10.8737   18.0482 C   0  0  0  0  0  0  0  0  0  0  0  0
    5.6751  -10.5870   29.7637 O   0  0  0  0  0  0  0  0  0  0  0  0
    1.7612   -5.6483   26.7172 C   0  0  0  0  0  0  0  0  0  0  0  0
    0.2221   -9.8326   17.4055 C   0  0  0  0  0  0  0  0  0  0  0  0
    4.3850   -9.0730   28.6745 C   0  0  0  0  0  0  0  0  0  0  0  0
  1  7  4  0
  1 22  4  0
  2 17  4  0
  2 20  4  0
  2 28  4  0
  3  6  1  0
  3 19  1  0
  4 19  1  0
  4 26  1  0
  5 17  4  0
  5 18  4  0
  6 20  1  0
  6 26  1  0
  7 24  4  0
  8 15  4  0
  8 24  4  0
  9 14  4  0
  9 21  4  0
 10 12  4  0
 10 27  4  0
 11 12  4  0
 11 23  4  0
 13 23  4  0
 13 27  4  0
 14 20  4  0
 15 22  4  0
 16 18  4  0
 16 25  2  0
 16 28  4  0
 21 28  4  0
 24 27  1  0
M  END
$$$$

 Created by Python create_sdf_string function

 28 31  0  0  0  0  0  0  0  0999 V2000
   -1.0054  -13.0622   19.1198 C   0  0  0  0  0  0  0  0  0  0  0  0
    3.1478   -8.5360   28.5161 C   0  0  0  0  0  0  0  0  0  0  0  0
    0.5798   -7.1906   27.9330 C   0  0  0  0  0  0  0  0  0  0  0  0
    0.3978   -5.1561   26.6955 C   0  0  0  0  0  0  0  0  0  0  0  0
    2.3063  -10.0533   30.0125 C   0  0  0  0  0  0  0  0  0  0  0  0
    1.8591   -6.8254   27.4685 N   0  0  0  0  0  0  0  0  0  0  0  0
   -0.2167  -12.1055   18.5568 C   0  0  0  0  0  0  0  0  0  0  0  0
   -2.0661  -10.6994   18.1916 C   0  0  0  0  0  0  0  0  0  0  0  0
    5.2703   -7.5691   27.1123 C   0  0  0  0  0  0  0  0  0  0  0  0
    1.6204   -9.9887   17.2935 C   0  0  0  0  0  0  0  0  0  0  0  0
    1.8931   -7.9265   16.2047 C   0  0  0  0  0  0  0  0  0  0  0  0
    2.4396   -9.0801   16.7132 C   0  0  0  0  0  0  0  0  0  0  0  0
   -0.2575   -8.6234   16.8582 C   0  0  0  0  0  0  0  0  0  0  0  0
    4.0614   -7.0367   27.0106 N   0  0  0  0  0  0  0  0  0  0  0  0
   -2.9133  -11.6279   18.7578 C   0  0  0  0  0  0  0  0  0  0  0  0
    4.5688  -10.1291   29.5758 C   0  0  0  0  0  0  0  0  0  0  0  0
    2.1008   -9.0410   29.1852 N   0  0  0  0  0  0  0  0  0  0  0  0
    3.4829  -10.5697   30.2091 N   0  0  0  0  0  0  0  0  0  0  0  0
   -0.3363   -6.1172   27.5628 C   0  0  0  0  0  0  0  0  0  0  0  0
    3.0331   -7.4400   27.6362 C   0  0  0  0  0  0  0  0  0  0  0  0
    5.4553   -8.5933   27.9644 C   0  0  0  0  0  0  0  0  0  0  0  0
   -2.3870  -12.8440   19.2512 C   0  0  0  0  0  0  0  0  0  0  0  0
    0.5331   -7.6964   16.2751 C   0  0  0  0  0  0  0  0  0  0  0  0
   -0.6740  -10.8737   18.0482 C   0  0  0  0  0  0  0  0  0  0  0  0
    5.6751  -10.5870   29.7637 O   0  0  0  0  0  0  0  0  0  0  0  0
    1.7612   -5.6483   26.7172 C   0  0  0  0  0  0  0  0  0  0  0  0
    0.2221   -9.8326   17.4055 C   0  0  0  0  0  0  0  0  0  0  0  0
    4.3850   -9.0730   28.6745 C   0  0  0  0  0  0  0  0  0  0  0  0
  1  7  4  0
  1 22  4  0
  2 17  4  0
  2 20  4  0
  2 28  4  0
  3  6  1  0
  3 19  1  0
  4 19  1  0
  4 26  1  0
  5 17  4  0
  5 18  4  0
  6 20  1  0
  6 26  1  0
  7 24  4  0
  8 15  4  0
  8 24  4  0
  9 14  4  0
  9 21  4  0
 10 12  4  0
 10 27  4  0
 11 12  4  0
 11 23  4  0
 13 23  4  0
 13 27  4  0
 14 20  4  0
 15 22  4  0
 16 18  4  0
 16 25  2  0
 16 28  4  0
 21 28  4  0
 24 27  1  0
M  END
$$$$

 Created by Python create_sdf_string function

 28 31  0  0  0  0  0  0  0  0999 V2000
   -1.0054  -13.0622   19.1198 C   0  0  0  0  0  0  0  0  0  0  0  0
    3.1478   -8.5360   28.5161 C   0  0  0  0  0  0  0  0  0  0  0  0
    0.5798   -7.1906   27.9330 C   0  0  0  0  0  0  0  0  0  0  0  0
    0.3978   -5.1561   26.6955 C   0  0  0  0  0  0  0  0  0  0  0  0
    2.3063  -10.0533   30.0125 C   0  0  0  0  0  0  0  0  0  0  0  0
    1.8591   -6.8254   27.4685 N   0  0  0  0  0  0  0  0  0  0  0  0
   -0.2167  -12.1055   18.5568 C   0  0  0  0  0  0  0  0  0  0  0  0
   -2.0661  -10.6994   18.1916 C   0  0  0  0  0  0  0  0  0  0  0  0
    5.2703   -7.5691   27.1123 C   0  0  0  0  0  0  0  0  0  0  0  0
    1.6204   -9.9887   17.2935 C   0  0  0  0  0  0  0  0  0  0  0  0
    1.8931   -7.9265   16.2047 C   0  0  0  0  0  0  0  0  0  0  0  0
    2.4396   -9.0801   16.7132 C   0  0  0  0  0  0  0  0  0  0  0  0
   -0.2575   -8.6234   16.8582 C   0  0  0  0  0  0  0  0  0  0  0  0
    4.0614   -7.0367   27.0106 N   0  0  0  0  0  0  0  0  0  0  0  0
   -2.9133  -11.6279   18.7578 C   0  0  0  0  0  0  0  0  0  0  0  0
    4.5688  -10.1291   29.5758 C   0  0  0  0  0  0  0  0  0  0  0  0
    2.1008   -9.0410   29.1852 N   0  0  0  0  0  0  0  0  0  0  0  0
    3.4829  -10.5697   30.2091 N   0  0  0  0  0  0  0  0  0  0  0  0
   -0.3363   -6.1172   27.5628 C   0  0  0  0  0  0  0  0  0  0  0  0
    3.0331   -7.4400   27.6362 C   0  0  0  0  0  0  0  0  0  0  0  0
    5.4553   -8.5933   27.9644 C   0  0  0  0  0  0  0  0  0  0  0  0
   -2.3870  -12.8440   19.2512 C   0  0  0  0  0  0  0  0  0  0  0  0
    0.5331   -7.6964   16.2751 C   0  0  0  0  0  0  0  0  0  0  0  0
   -0.6740  -10.8737   18.0482 C   0  0  0  0  0  0  0  0  0  0  0  0
    5.6751  -10.5870   29.7637 O   0  0  0  0  0  0  0  0  0  0  0  0
    1.7612   -5.6483   26.7172 C   0  0  0  0  0  0  0  0  0  0  0  0
    0.2221   -9.8326   17.4055 C   0  0  0  0  0  0  0  0  0  0  0  0
    4.3850   -9.0730   28.6745 C   0  0  0  0  0  0  0  0  0  0  0  0
  1  7  4  0
  1 22  4  0
  2 17  4  0
  2 20  4  0
  2 28  4  0
  3  6  1  0
  3 19  1  0
  4 19  1  0
  4 26  1  0
  5 17  4  0
  5 18  4  0
  6 20  1  0
  6 26  1  0
  7 24  4  0
  8 15  4  0
  8 24  4  0
  9 14  4  0
  9 21  4  0
 10 12  4  0
 10 27  4  0
 11 12  4  0
 11 23  4  0
 13 23  4  0
 13 27  4  0
 14 20  4  0
 15 22  4  0
 16 18  4  0
 16 25  2  0
 16 28  4  0
 21 28  4  0
 24 27  1  0
M  END
$$$$

 Created by Python create_sdf_string function

 28 31  0  0  0  0  0  0  0  0999 V2000
   -1.0054  -13.0622   19.1198 C   0  0  0  0  0  0  0  0  0  0  0  0
    3.1478   -8.5360   28.5161 C   0  0  0  0  0  0  0  0  0  0  0  0
    0.5798   -7.1906   27.9330 C   0  0  0  0  0  0  0  0  0  0  0  0
    0.3978   -5.1561   26.6955 C   0  0  0  0  0  0  0  0  0  0  0  0
    2.3063  -10.0533   30.0125 C   0  0  0  0  0  0  0  0  0  0  0  0
    1.8591   -6.8254   27.4685 N   0  0  0  0  0  0  0  0  0  0  0  0
   -0.2167  -12.1055   18.5568 C   0  0  0  0  0  0  0  0  0  0  0  0
   -2.0661  -10.6994   18.1916 C   0  0  0  0  0  0  0  0  0  0  0  0
    5.2703   -7.5691   27.1123 C   0  0  0  0  0  0  0  0  0  0  0  0
    1.6204   -9.9887   17.2935 C   0  0  0  0  0  0  0  0  0  0  0  0
    1.8931   -7.9265   16.2047 C   0  0  0  0  0  0  0  0  0  0  0  0
    2.4396   -9.0801   16.7132 C   0  0  0  0  0  0  0  0  0  0  0  0
   -0.2575   -8.6234   16.8582 C   0  0  0  0  0  0  0  0  0  0  0  0
    4.0614   -7.0367   27.0106 N   0  0  0  0  0  0  0  0  0  0  0  0
   -2.9133  -11.6279   18.7578 C   0  0  0  0  0  0  0  0  0  0  0  0
    4.5688  -10.1291   29.5758 C   0  0  0  0  0  0  0  0  0  0  0  0
    2.1008   -9.0410   29.1852 N   0  0  0  0  0  0  0  0  0  0  0  0
    3.4829  -10.5697   30.2091 N   0  0  0  0  0  0  0  0  0  0  0  0
   -0.3363   -6.1172   27.5628 C   0  0  0  0  0  0  0  0  0  0  0  0
    3.0331   -7.4400   27.6362 C   0  0  0  0  0  0  0  0  0  0  0  0
    5.4553   -8.5933   27.9644 C   0  0  0  0  0  0  0  0  0  0  0  0
   -2.3870  -12.8440   19.2512 C   0  0  0  0  0  0  0  0  0  0  0  0
    0.5331   -7.6964   16.2751 C   0  0  0  0  0  0  0  0  0  0  0  0
   -0.6740  -10.8737   18.0482 C   0  0  0  0  0  0  0  0  0  0  0  0
    5.6751  -10.5870   29.7637 O   0  0  0  0  0  0  0  0  0  0  0  0
    1.7612   -5.6483   26.7172 C   0  0  0  0  0  0  0  0  0  0  0  0
    0.2221   -9.8326   17.4055 C   0  0  0  0  0  0  0  0  0  0  0  0
    4.3850   -9.0730   28.6745 C   0  0  0  0  0  0  0  0  0  0  0  0
  1  7  4  0
  1 22  4  0
  2 17  4  0
  2 20  4  0
  2 28  4  0
  3  6  1  0
  3 19  1  0
  4 19  1  0
  4 26  1  0
  5 17  4  0
  5 18  4  0
  6 20  1  0
  6 26  1  0
  7 24  4  0
  8 15  4  0
  8 24  4  0
  9 14  4  0
  9 21  4  0
 10 12  4  0
 10 27  4  0
 11 12  4  0
 11 23  4  0
 13 23  4  0
 13 27  4  0
 14 20  4  0
 15 22  4  0
 16 18  4  0
 16 25  2  0
 16 28  4  0
 21 28  4  0
 24 27  1  0
M  END
$$$$

 Created by Python create_sdf_string function

 28 31  0  0  0  0  0  0  0  0999 V2000
   -1.0054  -13.0622   19.1198 C   0  0  0  0  0  0  0  0  0  0  0  0
    3.1478   -8.5360   28.5161 C   0  0  0  0  0  0  0  0  0  0  0  0
    0.5798   -7.1906   27.9330 C   0  0  0  0  0  0  0  0  0  0  0  0
    0.3978   -5.1561   26.6955 C   0  0  0  0  0  0  0  0  0  0  0  0
    2.3063  -10.0533   30.0125 C   0  0  0  0  0  0  0  0  0  0  0  0
    1.8591   -6.8254   27.4685 N   0  0  0  0  0  0  0  0  0  0  0  0
   -0.2167  -12.1055   18.5568 C   0  0  0  0  0  0  0  0  0  0  0  0
   -2.0661  -10.6994   18.1916 C   0  0  0  0  0  0  0  0  0  0  0  0
    5.2703   -7.5691   27.1123 C   0  0  0  0  0  0  0  0  0  0  0  0
    1.6204   -9.9887   17.2935 C   0  0  0  0  0  0  0  0  0  0  0  0
    1.8931   -7.9265   16.2047 C   0  0  0  0  0  0  0  0  0  0  0  0
    2.4396   -9.0801   16.7132 C   0  0  0  0  0  0  0  0  0  0  0  0
   -0.2575   -8.6234   16.8582 C   0  0  0  0  0  0  0  0  0  0  0  0
    4.0614   -7.0367   27.0106 N   0  0  0  0  0  0  0  0  0  0  0  0
   -2.9133  -11.6279   18.7578 C   0  0  0  0  0  0  0  0  0  0  0  0
    4.5688  -10.1291   29.5758 C   0  0  0  0  0  0  0  0  0  0  0  0
    2.1008   -9.0410   29.1852 N   0  0  0  0  0  0  0  0  0  0  0  0
    3.4829  -10.5697   30.2091 N   0  0  0  0  0  0  0  0  0  0  0  0
   -0.3363   -6.1172   27.5628 C   0  0  0  0  0  0  0  0  0  0  0  0
    3.0331   -7.4400   27.6362 C   0  0  0  0  0  0  0  0  0  0  0  0
    5.4553   -8.5933   27.9644 C   0  0  0  0  0  0  0  0  0  0  0  0
   -2.3870  -12.8440   19.2512 C   0  0  0  0  0  0  0  0  0  0  0  0
    0.5331   -7.6964   16.2751 C   0  0  0  0  0  0  0  0  0  0  0  0
   -0.6740  -10.8737   18.0482 C   0  0  0  0  0  0  0  0  0  0  0  0
    5.6751  -10.5870   29.7637 O   0  0  0  0  0  0  0  0  0  0  0  0
    1.7612   -5.6483   26.7172 C   0  0  0  0  0  0  0  0  0  0  0  0
    0.2221   -9.8326   17.4055 C   0  0  0  0  0  0  0  0  0  0  0  0
    4.3850   -9.0730   28.6745 C   0  0  0  0  0  0  0  0  0  0  0  0
  1  7  4  0
  1 22  4  0
  2 17  4  0
  2 20  4  0
  2 28  4  0
  3  6  1  0
  3 19  1  0
  4 19  1  0
  4 26  1  0
  5 17  4  0
  5 18  4  0
  6 20  1  0
  6 26  1  0
  7 24  4  0
  8 15  4  0
  8 24  4  0
  9 14  4  0
  9 21  4  0
 10 12  4  0
 10 27  4  0
 11 12  4  0
 11 23  4  0
 13 23  4  0
 13 27  4  0
 14 20  4  0
 15 22  4  0
 16 18  4  0
 16 25  2  0
 16 28  4  0
 21 28  4  0
 24 27  1  0
M  END
$$$$

 Created by Python create_sdf_string function

 28 31  0  0  0  0  0  0  0  0999 V2000
   -1.0054  -13.0622   19.1198 C   0  0  0  0  0  0  0  0  0  0  0  0
    3.1478   -8.5360   28.5161 C   0  0  0  0  0  0  0  0  0  0  0  0
    0.5798   -7.1906   27.9330 C   0  0  0  0  0  0  0  0  0  0  0  0
    0.3978   -5.1561   26.6955 C   0  0  0  0  0  0  0  0  0  0  0  0
    2.3063  -10.0533   30.0125 C   0  0  0  0  0  0  0  0  0  0  0  0
    1.8591   -6.8254   27.4685 N   0  0  0  0  0  0  0  0  0  0  0  0
   -0.2167  -12.1055   18.5568 C   0  0  0  0  0  0  0  0  0  0  0  0
   -2.0661  -10.6994   18.1916 C   0  0  0  0  0  0  0  0  0  0  0  0
    5.2703   -7.5691   27.1123 C   0  0  0  0  0  0  0  0  0  0  0  0
    1.6204   -9.9887   17.2935 C   0  0  0  0  0  0  0  0  0  0  0  0
    1.8931   -7.9265   16.2047 C   0  0  0  0  0  0  0  0  0  0  0  0
    2.4396   -9.0801   16.7132 C   0  0  0  0  0  0  0  0  0  0  0  0
   -0.2575   -8.6234   16.8582 C   0  0  0  0  0  0  0  0  0  0  0  0
    4.0614   -7.0367   27.0106 N   0  0  0  0  0  0  0  0  0  0  0  0
   -2.9133  -11.6279   18.7578 C   0  0  0  0  0  0  0  0  0  0  0  0
    4.5688  -10.1291   29.5758 C   0  0  0  0  0  0  0  0  0  0  0  0
    2.1008   -9.0410   29.1852 N   0  0  0  0  0  0  0  0  0  0  0  0
    3.4829  -10.5697   30.2091 N   0  0  0  0  0  0  0  0  0  0  0  0
   -0.3363   -6.1172   27.5628 C   0  0  0  0  0  0  0  0  0  0  0  0
    3.0331   -7.4400   27.6362 C   0  0  0  0  0  0  0  0  0  0  0  0
    5.4553   -8.5933   27.9644 C   0  0  0  0  0  0  0  0  0  0  0  0
   -2.3870  -12.8440   19.2512 C   0  0  0  0  0  0  0  0  0  0  0  0
    0.5331   -7.6964   16.2751 C   0  0  0  0  0  0  0  0  0  0  0  0
   -0.6740  -10.8737   18.0482 C   0  0  0  0  0  0  0  0  0  0  0  0
    5.6751  -10.5870   29.7637 O   0  0  0  0  0  0  0  0  0  0  0  0
    1.7612   -5.6483   26.7172 C   0  0  0  0  0  0  0  0  0  0  0  0
    0.2221   -9.8326   17.4055 C   0  0  0  0  0  0  0  0  0  0  0  0
    4.3850   -9.0730   28.6745 C   0  0  0  0  0  0  0  0  0  0  0  0
  1  7  4  0
  1 22  4  0
  2 17  4  0
  2 20  4  0
  2 28  4  0
  3  6  1  0
  3 19  1  0
  4 19  1  0
  4 26  1  0
  5 17  4  0
  5 18  4  0
  6 20  1  0
  6 26  1  0
  7 24  4  0
  8 15  4  0
  8 24  4  0
  9 14  4  0
  9 21  4  0
 10 12  4  0
 10 27  4  0
 11 12  4  0
 11 23  4  0
 13 23  4  0
 13 27  4  0
 14 20  4  0
 15 22  4  0
 16 18  4  0
 16 25  2  0
 16 28  4  0
 21 28  4  0
 24 27  1  0
M  END
$$$$

 Created by Python create_sdf_string function

 28 31  0  0  0  0  0  0  0  0999 V2000
   -1.0054  -13.0622   19.1198 C   0  0  0  0  0  0  0  0  0  0  0  0
    3.1478   -8.5360   28.5161 C   0  0  0  0  0  0  0  0  0  0  0  0
    0.5798   -7.1906   27.9330 C   0  0  0  0  0  0  0  0  0  0  0  0
    0.3978   -5.1561   26.6955 C   0  0  0  0  0  0  0  0  0  0  0  0
    2.3063  -10.0533   30.0125 C   0  0  0  0  0  0  0  0  0  0  0  0
    1.8591   -6.8254   27.4685 N   0  0  0  0  0  0  0  0  0  0  0  0
   -0.2167  -12.1055   18.5568 C   0  0  0  0  0  0  0  0  0  0  0  0
   -2.0661  -10.6994   18.1916 C   0  0  0  0  0  0  0  0  0  0  0  0
    5.2703   -7.5691   27.1123 C   0  0  0  0  0  0  0  0  0  0  0  0
    1.6204   -9.9887   17.2935 C   0  0  0  0  0  0  0  0  0  0  0  0
    1.8931   -7.9265   16.2047 C   0  0  0  0  0  0  0  0  0  0  0  0
    2.4396   -9.0801   16.7132 C   0  0  0  0  0  0  0  0  0  0  0  0
   -0.2575   -8.6234   16.8582 C   0  0  0  0  0  0  0  0  0  0  0  0
    4.0614   -7.0367   27.0106 N   0  0  0  0  0  0  0  0  0  0  0  0
   -2.9133  -11.6279   18.7578 C   0  0  0  0  0  0  0  0  0  0  0  0
    4.5688  -10.1291   29.5758 C   0  0  0  0  0  0  0  0  0  0  0  0
    2.1008   -9.0410   29.1852 N   0  0  0  0  0  0  0  0  0  0  0  0
    3.4829  -10.5697   30.2091 N   0  0  0  0  0  0  0  0  0  0  0  0
   -0.3363   -6.1172   27.5628 C   0  0  0  0  0  0  0  0  0  0  0  0
    3.0331   -7.4400   27.6362 C   0  0  0  0  0  0  0  0  0  0  0  0
    5.4553   -8.5933   27.9644 C   0  0  0  0  0  0  0  0  0  0  0  0
   -2.3870  -12.8440   19.2512 C   0  0  0  0  0  0  0  0  0  0  0  0
    0.5331   -7.6964   16.2751 C   0  0  0  0  0  0  0  0  0  0  0  0
   -0.6740  -10.8737   18.0482 C   0  0  0  0  0  0  0  0  0  0  0  0
    5.6751  -10.5870   29.7637 O   0  0  0  0  0  0  0  0  0  0  0  0
    1.7612   -5.6483   26.7172 C   0  0  0  0  0  0  0  0  0  0  0  0
    0.2221   -9.8326   17.4055 C   0  0  0  0  0  0  0  0  0  0  0  0
    4.3850   -9.0730   28.6745 C   0  0  0  0  0  0  0  0  0  0  0  0
  1  7  4  0
  1 22  4  0
  2 17  4  0
  2 20  4  0
  2 28  4  0
  3  6  1  0
  3 19  1  0
  4 19  1  0
  4 26  1  0
  5 17  4  0
  5 18  4  0
  6 20  1  0
  6 26  1  0
  7 24  4  0
  8 15  4  0
  8 24  4  0
  9 14  4  0
  9 21  4  0
 10 12  4  0
 10 27  4  0
 11 12  4  0
 11 23  4  0
 13 23  4  0
 13 27  4  0
 14 20  4  0
 15 22  4  0
 16 18  4  0
 16 25  2  0
 16 28  4  0
 21 28  4  0
 24 27  1  0
M  END
$$$$

 Created by Python create_sdf_string function

 28 31  0  0  0  0  0  0  0  0999 V2000
   -1.0054  -13.0622   19.1198 C   0  0  0  0  0  0  0  0  0  0  0  0
    3.1478   -8.5360   28.5161 C   0  0  0  0  0  0  0  0  0  0  0  0
    0.5798   -7.1906   27.9330 C   0  0  0  0  0  0  0  0  0  0  0  0
    0.3978   -5.1561   26.6955 C   0  0  0  0  0  0  0  0  0  0  0  0
    2.3063  -10.0533   30.0125 C   0  0  0  0  0  0  0  0  0  0  0  0
    1.8591   -6.8254   27.4685 N   0  0  0  0  0  0  0  0  0  0  0  0
   -0.2167  -12.1055   18.5568 C   0  0  0  0  0  0  0  0  0  0  0  0
   -2.0661  -10.6994   18.1916 C   0  0  0  0  0  0  0  0  0  0  0  0
    5.2703   -7.5691   27.1123 C   0  0  0  0  0  0  0  0  0  0  0  0
    1.6204   -9.9887   17.2935 C   0  0  0  0  0  0  0  0  0  0  0  0
    1.8931   -7.9265   16.2047 C   0  0  0  0  0  0  0  0  0  0  0  0
    2.4396   -9.0801   16.7132 C   0  0  0  0  0  0  0  0  0  0  0  0
   -0.2575   -8.6234   16.8582 C   0  0  0  0  0  0  0  0  0  0  0  0
    4.0614   -7.0367   27.0106 N   0  0  0  0  0  0  0  0  0  0  0  0
   -2.9133  -11.6279   18.7578 C   0  0  0  0  0  0  0  0  0  0  0  0
    4.5688  -10.1291   29.5758 C   0  0  0  0  0  0  0  0  0  0  0  0
    2.1008   -9.0410   29.1852 N   0  0  0  0  0  0  0  0  0  0  0  0
    3.4829  -10.5697   30.2091 N   0  0  0  0  0  0  0  0  0  0  0  0
   -0.3363   -6.1172   27.5628 C   0  0  0  0  0  0  0  0  0  0  0  0
    3.0331   -7.4400   27.6362 C   0  0  0  0  0  0  0  0  0  0  0  0
    5.4553   -8.5933   27.9644 C   0  0  0  0  0  0  0  0  0  0  0  0
   -2.3870  -12.8440   19.2512 C   0  0  0  0  0  0  0  0  0  0  0  0
    0.5331   -7.6964   16.2751 C   0  0  0  0  0  0  0  0  0  0  0  0
   -0.6740  -10.8737   18.0482 C   0  0  0  0  0  0  0  0  0  0  0  0
    5.6751  -10.5870   29.7637 O   0  0  0  0  0  0  0  0  0  0  0  0
    1.7612   -5.6483   26.7172 C   0  0  0  0  0  0  0  0  0  0  0  0
    0.2221   -9.8326   17.4055 C   0  0  0  0  0  0  0  0  0  0  0  0
    4.3850   -9.0730   28.6745 C   0  0  0  0  0  0  0  0  0  0  0  0
  1  7  4  0
  1 22  4  0
  2 17  4  0
  2 20  4  0
  2 28  4  0
  3  6  1  0
  3 19  1  0
  4 19  1  0
  4 26  1  0
  5 17  4  0
  5 18  4  0
  6 20  1  0
  6 26  1  0
  7 24  4  0
  8 15  4  0
  8 24  4  0
  9 14  4  0
  9 21  4  0
 10 12  4  0
 10 27  4  0
 11 12  4  0
 11 23  4  0
 13 23  4  0
 13 27  4  0
 14 20  4  0
 15 22  4  0
 16 18  4  0
 16 25  2  0
 16 28  4  0
 21 28  4  0
 24 27  1  0
M  END
$$$$

 Created by Python create_sdf_string function

 28 31  0  0  0  0  0  0  0  0999 V2000
   -1.0054  -13.0622   19.1198 C   0  0  0  0  0  0  0  0  0  0  0  0
    3.1478   -8.5360   28.5161 C   0  0  0  0  0  0  0  0  0  0  0  0
    0.5798   -7.1906   27.9330 C   0  0  0  0  0  0  0  0  0  0  0  0
    0.3978   -5.1561   26.6955 C   0  0  0  0  0  0  0  0  0  0  0  0
    2.3063  -10.0533   30.0125 C   0  0  0  0  0  0  0  0  0  0  0  0
    1.8591   -6.8254   27.4685 N   0  0  0  0  0  0  0  0  0  0  0  0
   -0.2167  -12.1055   18.5568 C   0  0  0  0  0  0  0  0  0  0  0  0
   -2.0661  -10.6994   18.1916 C   0  0  0  0  0  0  0  0  0  0  0  0
    5.2703   -7.5691   27.1123 C   0  0  0  0  0  0  0  0  0  0  0  0
    1.6204   -9.9887   17.2935 C   0  0  0  0  0  0  0  0  0  0  0  0
    1.8931   -7.9265   16.2047 C   0  0  0  0  0  0  0  0  0  0  0  0
    2.4396   -9.0801   16.7132 C   0  0  0  0  0  0  0  0  0  0  0  0
   -0.2575   -8.6234   16.8582 C   0  0  0  0  0  0  0  0  0  0  0  0
    4.0614   -7.0367   27.0106 N   0  0  0  0  0  0  0  0  0  0  0  0
   -2.9133  -11.6279   18.7578 C   0  0  0  0  0  0  0  0  0  0  0  0
    4.5688  -10.1291   29.5758 C   0  0  0  0  0  0  0  0  0  0  0  0
    2.1008   -9.0410   29.1852 N   0  0  0  0  0  0  0  0  0  0  0  0
    3.4829  -10.5697   30.2091 N   0  0  0  0  0  0  0  0  0  0  0  0
   -0.3363   -6.1172   27.5628 C   0  0  0  0  0  0  0  0  0  0  0  0
    3.0331   -7.4400   27.6362 C   0  0  0  0  0  0  0  0  0  0  0  0
    5.4553   -8.5933   27.9644 C   0  0  0  0  0  0  0  0  0  0  0  0
   -2.3870  -12.8440   19.2512 C   0  0  0  0  0  0  0  0  0  0  0  0
    0.5331   -7.6964   16.2751 C   0  0  0  0  0  0  0  0  0  0  0  0
   -0.6740  -10.8737   18.0482 C   0  0  0  0  0  0  0  0  0  0  0  0
    5.6751  -10.5870   29.7637 O   0  0  0  0  0  0  0  0  0  0  0  0
    1.7612   -5.6483   26.7172 C   0  0  0  0  0  0  0  0  0  0  0  0
    0.2221   -9.8326   17.4055 C   0  0  0  0  0  0  0  0  0  0  0  0
    4.3850   -9.0730   28.6745 C   0  0  0  0  0  0  0  0  0  0  0  0
  1  7  4  0
  1 22  4  0
  2 17  4  0
  2 20  4  0
  2 28  4  0
  3  6  1  0
  3 19  1  0
  4 19  1  0
  4 26  1  0
  5 17  4  0
  5 18  4  0
  6 20  1  0
  6 26  1  0
  7 24  4  0
  8 15  4  0
  8 24  4  0
  9 14  4  0
  9 21  4  0
 10 12  4  0
 10 27  4  0
 11 12  4  0
 11 23  4  0
 13 23  4  0
 13 27  4  0
 14 20  4  0
 15 22  4  0
 16 18  4  0
 16 25  2  0
 16 28  4  0
 21 28  4  0
 24 27  1  0
M  END
$$$$

 Created by Python create_sdf_string function

 28 31  0  0  0  0  0  0  0  0999 V2000
   -1.0054  -13.0622   19.1198 C   0  0  0  0  0  0  0  0  0  0  0  0
    3.1478   -8.5360   28.5161 C   0  0  0  0  0  0  0  0  0  0  0  0
    0.5798   -7.1906   27.9330 C   0  0  0  0  0  0  0  0  0  0  0  0
    0.3978   -5.1561   26.6955 C   0  0  0  0  0  0  0  0  0  0  0  0
    2.3063  -10.0533   30.0125 C   0  0  0  0  0  0  0  0  0  0  0  0
    1.8591   -6.8254   27.4685 N   0  0  0  0  0  0  0  0  0  0  0  0
   -0.2167  -12.1055   18.5568 C   0  0  0  0  0  0  0  0  0  0  0  0
   -2.0661  -10.6994   18.1916 C   0  0  0  0  0  0  0  0  0  0  0  0
    5.2703   -7.5691   27.1123 C   0  0  0  0  0  0  0  0  0  0  0  0
    1.6204   -9.9887   17.2935 C   0  0  0  0  0  0  0  0  0  0  0  0
    1.8931   -7.9265   16.2047 C   0  0  0  0  0  0  0  0  0  0  0  0
    2.4396   -9.0801   16.7132 C   0  0  0  0  0  0  0  0  0  0  0  0
   -0.2575   -8.6234   16.8582 C   0  0  0  0  0  0  0  0  0  0  0  0
    4.0614   -7.0367   27.0106 N   0  0  0  0  0  0  0  0  0  0  0  0
   -2.9133  -11.6279   18.7578 C   0  0  0  0  0  0  0  0  0  0  0  0
    4.5688  -10.1291   29.5758 C   0  0  0  0  0  0  0  0  0  0  0  0
    2.1008   -9.0410   29.1852 N   0  0  0  0  0  0  0  0  0  0  0  0
    3.4829  -10.5697   30.2091 N   0  0  0  0  0  0  0  0  0  0  0  0
   -0.3363   -6.1172   27.5628 C   0  0  0  0  0  0  0  0  0  0  0  0
    3.0331   -7.4400   27.6362 C   0  0  0  0  0  0  0  0  0  0  0  0
    5.4553   -8.5933   27.9644 C   0  0  0  0  0  0  0  0  0  0  0  0
   -2.3870  -12.8440   19.2512 C   0  0  0  0  0  0  0  0  0  0  0  0
    0.5331   -7.6964   16.2751 C   0  0  0  0  0  0  0  0  0  0  0  0
   -0.6740  -10.8737   18.0482 C   0  0  0  0  0  0  0  0  0  0  0  0
    5.6751  -10.5870   29.7637 O   0  0  0  0  0  0  0  0  0  0  0  0
    1.7612   -5.6483   26.7172 C   0  0  0  0  0  0  0  0  0  0  0  0
    0.2221   -9.8326   17.4055 C   0  0  0  0  0  0  0  0  0  0  0  0
    4.3850   -9.0730   28.6745 C   0  0  0  0  0  0  0  0  0  0  0  0
  1  7  4  0
  1 22  4  0
  2 17  4  0
  2 20  4  0
  2 28  4  0
  3  6  1  0
  3 19  1  0
  4 19  1  0
  4 26  1  0
  5 17  4  0
  5 18  4  0
  6 20  1  0
  6 26  1  0
  7 24  4  0
  8 15  4  0
  8 24  4  0
  9 14  4  0
  9 21  4  0
 10 12  4  0
 10 27  4  0
 11 12  4  0
 11 23  4  0
 13 23  4  0
 13 27  4  0
 14 20  4  0
 15 22  4  0
 16 18  4  0
 16 25  2  0
 16 28  4  0
 21 28  4  0
 24 27  1  0
M  END
$$$$

 Created by Python create_sdf_string function

 28 31  0  0  0  0  0  0  0  0999 V2000
   -1.0054  -13.0622   19.1198 C   0  0  0  0  0  0  0  0  0  0  0  0
    3.1478   -8.5360   28.5161 C   0  0  0  0  0  0  0  0  0  0  0  0
    0.5798   -7.1906   27.9330 C   0  0  0  0  0  0  0  0  0  0  0  0
    0.3978   -5.1561   26.6955 C   0  0  0  0  0  0  0  0  0  0  0  0
    2.3063  -10.0533   30.0125 C   0  0  0  0  0  0  0  0  0  0  0  0
    1.8591   -6.8254   27.4685 N   0  0  0  0  0  0  0  0  0  0  0  0
   -0.2167  -12.1055   18.5568 C   0  0  0  0  0  0  0  0  0  0  0  0
   -2.0661  -10.6994   18.1916 C   0  0  0  0  0  0  0  0  0  0  0  0
    5.2703   -7.5691   27.1123 C   0  0  0  0  0  0  0  0  0  0  0  0
    1.6204   -9.9887   17.2935 C   0  0  0  0  0  0  0  0  0  0  0  0
    1.8931   -7.9265   16.2047 C   0  0  0  0  0  0  0  0  0  0  0  0
    2.4396   -9.0801   16.7132 C   0  0  0  0  0  0  0  0  0  0  0  0
   -0.2575   -8.6234   16.8582 C   0  0  0  0  0  0  0  0  0  0  0  0
    4.0614   -7.0367   27.0106 N   0  0  0  0  0  0  0  0  0  0  0  0
   -2.9133  -11.6279   18.7578 C   0  0  0  0  0  0  0  0  0  0  0  0
    4.5688  -10.1291   29.5758 C   0  0  0  0  0  0  0  0  0  0  0  0
    2.1008   -9.0410   29.1852 N   0  0  0  0  0  0  0  0  0  0  0  0
    3.4829  -10.5697   30.2091 N   0  0  0  0  0  0  0  0  0  0  0  0
   -0.3363   -6.1172   27.5628 C   0  0  0  0  0  0  0  0  0  0  0  0
    3.0331   -7.4400   27.6362 C   0  0  0  0  0  0  0  0  0  0  0  0
    5.4553   -8.5933   27.9644 C   0  0  0  0  0  0  0  0  0  0  0  0
   -2.3870  -12.8440   19.2512 C   0  0  0  0  0  0  0  0  0  0  0  0
    0.5331   -7.6964   16.2751 C   0  0  0  0  0  0  0  0  0  0  0  0
   -0.6740  -10.8737   18.0482 C   0  0  0  0  0  0  0  0  0  0  0  0
    5.6751  -10.5870   29.7637 O   0  0  0  0  0  0  0  0  0  0  0  0
    1.7612   -5.6483   26.7172 C   0  0  0  0  0  0  0  0  0  0  0  0
    0.2221   -9.8326   17.4055 C   0  0  0  0  0  0  0  0  0  0  0  0
    4.3850   -9.0730   28.6745 C   0  0  0  0  0  0  0  0  0  0  0  0
  1  7  4  0
  1 22  4  0
  2 17  4  0
  2 20  4  0
  2 28  4  0
  3  6  1  0
  3 19  1  0
  4 19  1  0
  4 26  1  0
  5 17  4  0
  5 18  4  0
  6 20  1  0
  6 26  1  0
  7 24  4  0
  8 15  4  0
  8 24  4  0
  9 14  4  0
  9 21  4  0
 10 12  4  0
 10 27  4  0
 11 12  4  0
 11 23  4  0
 13 23  4  0
 13 27  4  0
 14 20  4  0
 15 22  4  0
 16 18  4  0
 16 25  2  0
 16 28  4  0
 21 28  4  0
 24 27  1  0
M  END
$$$$

 Created by Python create_sdf_string function

 28 31  0  0  0  0  0  0  0  0999 V2000
   -1.0054  -13.0622   19.1198 C   0  0  0  0  0  0  0  0  0  0  0  0
    3.1478   -8.5360   28.5161 C   0  0  0  0  0  0  0  0  0  0  0  0
    0.5798   -7.1906   27.9330 C   0  0  0  0  0  0  0  0  0  0  0  0
    0.3978   -5.1561   26.6955 C   0  0  0  0  0  0  0  0  0  0  0  0
    2.3063  -10.0533   30.0125 C   0  0  0  0  0  0  0  0  0  0  0  0
    1.8591   -6.8254   27.4685 N   0  0  0  0  0  0  0  0  0  0  0  0
   -0.2167  -12.1055   18.5568 C   0  0  0  0  0  0  0  0  0  0  0  0
   -2.0661  -10.6994   18.1916 C   0  0  0  0  0  0  0  0  0  0  0  0
    5.2703   -7.5691   27.1123 C   0  0  0  0  0  0  0  0  0  0  0  0
    1.6204   -9.9887   17.2935 C   0  0  0  0  0  0  0  0  0  0  0  0
    1.8931   -7.9265   16.2047 C   0  0  0  0  0  0  0  0  0  0  0  0
    2.4396   -9.0801   16.7132 C   0  0  0  0  0  0  0  0  0  0  0  0
   -0.2575   -8.6234   16.8582 C   0  0  0  0  0  0  0  0  0  0  0  0
    4.0614   -7.0367   27.0106 N   0  0  0  0  0  0  0  0  0  0  0  0
   -2.9133  -11.6279   18.7578 C   0  0  0  0  0  0  0  0  0  0  0  0
    4.5688  -10.1291   29.5758 C   0  0  0  0  0  0  0  0  0  0  0  0
    2.1008   -9.0410   29.1852 N   0  0  0  0  0  0  0  0  0  0  0  0
    3.4829  -10.5697   30.2091 N   0  0  0  0  0  0  0  0  0  0  0  0
   -0.3363   -6.1172   27.5628 C   0  0  0  0  0  0  0  0  0  0  0  0
    3.0331   -7.4400   27.6362 C   0  0  0  0  0  0  0  0  0  0  0  0
    5.4553   -8.5933   27.9644 C   0  0  0  0  0  0  0  0  0  0  0  0
   -2.3870  -12.8440   19.2512 C   0  0  0  0  0  0  0  0  0  0  0  0
    0.5331   -7.6964   16.2751 C   0  0  0  0  0  0  0  0  0  0  0  0
   -0.6740  -10.8737   18.0482 C   0  0  0  0  0  0  0  0  0  0  0  0
    5.6751  -10.5870   29.7637 O   0  0  0  0  0  0  0  0  0  0  0  0
    1.7612   -5.6483   26.7172 C   0  0  0  0  0  0  0  0  0  0  0  0
    0.2221   -9.8326   17.4055 C   0  0  0  0  0  0  0  0  0  0  0  0
    4.3850   -9.0730   28.6745 C   0  0  0  0  0  0  0  0  0  0  0  0
  1  7  4  0
  1 22  4  0
  2 17  4  0
  2 20  4  0
  2 28  4  0
  3  6  1  0
  3 19  1  0
  4 19  1  0
  4 26  1  0
  5 17  4  0
  5 18  4  0
  6 20  1  0
  6 26  1  0
  7 24  4  0
  8 15  4  0
  8 24  4  0
  9 14  4  0
  9 21  4  0
 10 12  4  0
 10 27  4  0
 11 12  4  0
 11 23  4  0
 13 23  4  0
 13 27  4  0
 14 20  4  0
 15 22  4  0
 16 18  4  0
 16 25  2  0
 16 28  4  0
 21 28  4  0
 24 27  1  0
M  END
$$$$

 Created by Python create_sdf_string function

 28 31  0  0  0  0  0  0  0  0999 V2000
   -1.0054  -13.0622   19.1198 C   0  0  0  0  0  0  0  0  0  0  0  0
    3.1478   -8.5360   28.5161 C   0  0  0  0  0  0  0  0  0  0  0  0
    0.5798   -7.1906   27.9330 C   0  0  0  0  0  0  0  0  0  0  0  0
    0.3978   -5.1561   26.6955 C   0  0  0  0  0  0  0  0  0  0  0  0
    2.3063  -10.0533   30.0125 C   0  0  0  0  0  0  0  0  0  0  0  0
    1.8591   -6.8254   27.4685 N   0  0  0  0  0  0  0  0  0  0  0  0
   -0.2167  -12.1055   18.5568 C   0  0  0  0  0  0  0  0  0  0  0  0
   -2.0661  -10.6994   18.1916 C   0  0  0  0  0  0  0  0  0  0  0  0
    5.2703   -7.5691   27.1123 C   0  0  0  0  0  0  0  0  0  0  0  0
    1.6204   -9.9887   17.2935 C   0  0  0  0  0  0  0  0  0  0  0  0
    1.8931   -7.9265   16.2047 C   0  0  0  0  0  0  0  0  0  0  0  0
    2.4396   -9.0801   16.7132 C   0  0  0  0  0  0  0  0  0  0  0  0
   -0.2575   -8.6234   16.8582 C   0  0  0  0  0  0  0  0  0  0  0  0
    4.0614   -7.0367   27.0106 N   0  0  0  0  0  0  0  0  0  0  0  0
   -2.9133  -11.6279   18.7578 C   0  0  0  0  0  0  0  0  0  0  0  0
    4.5688  -10.1291   29.5758 C   0  0  0  0  0  0  0  0  0  0  0  0
    2.1008   -9.0410   29.1852 N   0  0  0  0  0  0  0  0  0  0  0  0
    3.4829  -10.5697   30.2091 N   0  0  0  0  0  0  0  0  0  0  0  0
   -0.3363   -6.1172   27.5628 C   0  0  0  0  0  0  0  0  0  0  0  0
    3.0331   -7.4400   27.6362 C   0  0  0  0  0  0  0  0  0  0  0  0
    5.4553   -8.5933   27.9644 C   0  0  0  0  0  0  0  0  0  0  0  0
   -2.3870  -12.8440   19.2512 C   0  0  0  0  0  0  0  0  0  0  0  0
    0.5331   -7.6964   16.2751 C   0  0  0  0  0  0  0  0  0  0  0  0
   -0.6740  -10.8737   18.0482 C   0  0  0  0  0  0  0  0  0  0  0  0
    5.6751  -10.5870   29.7637 O   0  0  0  0  0  0  0  0  0  0  0  0
    1.7612   -5.6483   26.7172 C   0  0  0  0  0  0  0  0  0  0  0  0
    0.2221   -9.8326   17.4055 C   0  0  0  0  0  0  0  0  0  0  0  0
    4.3850   -9.0730   28.6745 C   0  0  0  0  0  0  0  0  0  0  0  0
  1  7  4  0
  1 22  4  0
  2 17  4  0
  2 20  4  0
  2 28  4  0
  3  6  1  0
  3 19  1  0
  4 19  1  0
  4 26  1  0
  5 17  4  0
  5 18  4  0
  6 20  1  0
  6 26  1  0
  7 24  4  0
  8 15  4  0
  8 24  4  0
  9 14  4  0
  9 21  4  0
 10 12  4  0
 10 27  4  0
 11 12  4  0
 11 23  4  0
 13 23  4  0
 13 27  4  0
 14 20  4  0
 15 22  4  0
 16 18  4  0
 16 25  2  0
 16 28  4  0
 21 28  4  0
 24 27  1  0
M  END
$$$$

 Created by Python create_sdf_string function

 28 31  0  0  0  0  0  0  0  0999 V2000
   -1.0054  -13.0622   19.1198 C   0  0  0  0  0  0  0  0  0  0  0  0
    3.1478   -8.5360   28.5161 C   0  0  0  0  0  0  0  0  0  0  0  0
    0.5798   -7.1906   27.9330 C   0  0  0  0  0  0  0  0  0  0  0  0
    0.3978   -5.1561   26.6955 C   0  0  0  0  0  0  0  0  0  0  0  0
    2.3063  -10.0533   30.0125 C   0  0  0  0  0  0  0  0  0  0  0  0
    1.8591   -6.8254   27.4685 N   0  0  0  0  0  0  0  0  0  0  0  0
   -0.2167  -12.1055   18.5568 C   0  0  0  0  0  0  0  0  0  0  0  0
   -2.0661  -10.6994   18.1916 C   0  0  0  0  0  0  0  0  0  0  0  0
    5.2703   -7.5691   27.1123 C   0  0  0  0  0  0  0  0  0  0  0  0
    1.6204   -9.9887   17.2935 C   0  0  0  0  0  0  0  0  0  0  0  0
    1.8931   -7.9265   16.2047 C   0  0  0  0  0  0  0  0  0  0  0  0
    2.4396   -9.0801   16.7132 C   0  0  0  0  0  0  0  0  0  0  0  0
   -0.2575   -8.6234   16.8582 C   0  0  0  0  0  0  0  0  0  0  0  0
    4.0614   -7.0367   27.0106 N   0  0  0  0  0  0  0  0  0  0  0  0
   -2.9133  -11.6279   18.7578 C   0  0  0  0  0  0  0  0  0  0  0  0
    4.5688  -10.1291   29.5758 C   0  0  0  0  0  0  0  0  0  0  0  0
    2.1008   -9.0410   29.1852 N   0  0  0  0  0  0  0  0  0  0  0  0
    3.4829  -10.5697   30.2091 N   0  0  0  0  0  0  0  0  0  0  0  0
   -0.3363   -6.1172   27.5628 C   0  0  0  0  0  0  0  0  0  0  0  0
    3.0331   -7.4400   27.6362 C   0  0  0  0  0  0  0  0  0  0  0  0
    5.4553   -8.5933   27.9644 C   0  0  0  0  0  0  0  0  0  0  0  0
   -2.3870  -12.8440   19.2512 C   0  0  0  0  0  0  0  0  0  0  0  0
    0.5331   -7.6964   16.2751 C   0  0  0  0  0  0  0  0  0  0  0  0
   -0.6740  -10.8737   18.0482 C   0  0  0  0  0  0  0  0  0  0  0  0
    5.6751  -10.5870   29.7637 O   0  0  0  0  0  0  0  0  0  0  0  0
    1.7612   -5.6483   26.7172 C   0  0  0  0  0  0  0  0  0  0  0  0
    0.2221   -9.8326   17.4055 C   0  0  0  0  0  0  0  0  0  0  0  0
    4.3850   -9.0730   28.6745 C   0  0  0  0  0  0  0  0  0  0  0  0
  1  7  4  0
  1 22  4  0
  2 17  4  0
  2 20  4  0
  2 28  4  0
  3  6  1  0
  3 19  1  0
  4 19  1  0
  4 26  1  0
  5 17  4  0
  5 18  4  0
  6 20  1  0
  6 26  1  0
  7 24  4  0
  8 15  4  0
  8 24  4  0
  9 14  4  0
  9 21  4  0
 10 12  4  0
 10 27  4  0
 11 12  4  0
 11 23  4  0
 13 23  4  0
 13 27  4  0
 14 20  4  0
 15 22  4  0
 16 18  4  0
 16 25  2  0
 16 28  4  0
 21 28  4  0
 24 27  1  0
M  END
$$$$

 Created by Python create_sdf_string function

 28 31  0  0  0  0  0  0  0  0999 V2000
   -1.0054  -13.0622   19.1198 C   0  0  0  0  0  0  0  0  0  0  0  0
    3.1478   -8.5360   28.5161 C   0  0  0  0  0  0  0  0  0  0  0  0
    0.5798   -7.1906   27.9330 C   0  0  0  0  0  0  0  0  0  0  0  0
    0.3978   -5.1561   26.6955 C   0  0  0  0  0  0  0  0  0  0  0  0
    2.3063  -10.0533   30.0125 C   0  0  0  0  0  0  0  0  0  0  0  0
    1.8591   -6.8254   27.4685 N   0  0  0  0  0  0  0  0  0  0  0  0
   -0.2167  -12.1055   18.5568 C   0  0  0  0  0  0  0  0  0  0  0  0
   -2.0661  -10.6994   18.1916 C   0  0  0  0  0  0  0  0  0  0  0  0
    5.2703   -7.5691   27.1123 C   0  0  0  0  0  0  0  0  0  0  0  0
    1.6204   -9.9887   17.2935 C   0  0  0  0  0  0  0  0  0  0  0  0
    1.8931   -7.9265   16.2047 C   0  0  0  0  0  0  0  0  0  0  0  0
    2.4396   -9.0801   16.7132 C   0  0  0  0  0  0  0  0  0  0  0  0
   -0.2575   -8.6234   16.8582 C   0  0  0  0  0  0  0  0  0  0  0  0
    4.0614   -7.0367   27.0106 N   0  0  0  0  0  0  0  0  0  0  0  0
   -2.9133  -11.6279   18.7578 C   0  0  0  0  0  0  0  0  0  0  0  0
    4.5688  -10.1291   29.5758 C   0  0  0  0  0  0  0  0  0  0  0  0
    2.1008   -9.0410   29.1852 N   0  0  0  0  0  0  0  0  0  0  0  0
    3.4829  -10.5697   30.2091 N   0  0  0  0  0  0  0  0  0  0  0  0
   -0.3363   -6.1172   27.5628 C   0  0  0  0  0  0  0  0  0  0  0  0
    3.0331   -7.4400   27.6362 C   0  0  0  0  0  0  0  0  0  0  0  0
    5.4553   -8.5933   27.9644 C   0  0  0  0  0  0  0  0  0  0  0  0
   -2.3870  -12.8440   19.2512 C   0  0  0  0  0  0  0  0  0  0  0  0
    0.5331   -7.6964   16.2751 C   0  0  0  0  0  0  0  0  0  0  0  0
   -0.6740  -10.8737   18.0482 C   0  0  0  0  0  0  0  0  0  0  0  0
    5.6751  -10.5870   29.7637 O   0  0  0  0  0  0  0  0  0  0  0  0
    1.7612   -5.6483   26.7172 C   0  0  0  0  0  0  0  0  0  0  0  0
    0.2221   -9.8326   17.4055 C   0  0  0  0  0  0  0  0  0  0  0  0
    4.3850   -9.0730   28.6745 C   0  0  0  0  0  0  0  0  0  0  0  0
  1  7  4  0
  1 22  4  0
  2 17  4  0
  2 20  4  0
  2 28  4  0
  3  6  1  0
  3 19  1  0
  4 19  1  0
  4 26  1  0
  5 17  4  0
  5 18  4  0
  6 20  1  0
  6 26  1  0
  7 24  4  0
  8 15  4  0
  8 24  4  0
  9 14  4  0
  9 21  4  0
 10 12  4  0
 10 27  4  0
 11 12  4  0
 11 23  4  0
 13 23  4  0
 13 27  4  0
 14 20  4  0
 15 22  4  0
 16 18  4  0
 16 25  2  0
 16 28  4  0
 21 28  4  0
 24 27  1  0
M  END
$$$$

 Created by Python create_sdf_string function

 28 31  0  0  0  0  0  0  0  0999 V2000
   -1.0054  -13.0622   19.1198 C   0  0  0  0  0  0  0  0  0  0  0  0
    3.1478   -8.5360   28.5161 C   0  0  0  0  0  0  0  0  0  0  0  0
    0.5798   -7.1906   27.9330 C   0  0  0  0  0  0  0  0  0  0  0  0
    0.3978   -5.1561   26.6955 C   0  0  0  0  0  0  0  0  0  0  0  0
    2.3063  -10.0533   30.0125 C   0  0  0  0  0  0  0  0  0  0  0  0
    1.8591   -6.8254   27.4685 N   0  0  0  0  0  0  0  0  0  0  0  0
   -0.2167  -12.1055   18.5568 C   0  0  0  0  0  0  0  0  0  0  0  0
   -2.0661  -10.6994   18.1916 C   0  0  0  0  0  0  0  0  0  0  0  0
    5.2703   -7.5691   27.1123 C   0  0  0  0  0  0  0  0  0  0  0  0
    1.6204   -9.9887   17.2935 C   0  0  0  0  0  0  0  0  0  0  0  0
    1.8931   -7.9265   16.2047 C   0  0  0  0  0  0  0  0  0  0  0  0
    2.4396   -9.0801   16.7132 C   0  0  0  0  0  0  0  0  0  0  0  0
   -0.2575   -8.6234   16.8582 C   0  0  0  0  0  0  0  0  0  0  0  0
    4.0614   -7.0367   27.0106 N   0  0  0  0  0  0  0  0  0  0  0  0
   -2.9133  -11.6279   18.7578 C   0  0  0  0  0  0  0  0  0  0  0  0
    4.5688  -10.1291   29.5758 C   0  0  0  0  0  0  0  0  0  0  0  0
    2.1008   -9.0410   29.1852 N   0  0  0  0  0  0  0  0  0  0  0  0
    3.4829  -10.5697   30.2091 N   0  0  0  0  0  0  0  0  0  0  0  0
   -0.3363   -6.1172   27.5628 C   0  0  0  0  0  0  0  0  0  0  0  0
    3.0331   -7.4400   27.6362 C   0  0  0  0  0  0  0  0  0  0  0  0
    5.4553   -8.5933   27.9644 C   0  0  0  0  0  0  0  0  0  0  0  0
   -2.3870  -12.8440   19.2512 C   0  0  0  0  0  0  0  0  0  0  0  0
    0.5331   -7.6964   16.2751 C   0  0  0  0  0  0  0  0  0  0  0  0
   -0.6740  -10.8737   18.0482 C   0  0  0  0  0  0  0  0  0  0  0  0
    5.6751  -10.5870   29.7637 O   0  0  0  0  0  0  0  0  0  0  0  0
    1.7612   -5.6483   26.7172 C   0  0  0  0  0  0  0  0  0  0  0  0
    0.2221   -9.8326   17.4055 C   0  0  0  0  0  0  0  0  0  0  0  0
    4.3850   -9.0730   28.6745 C   0  0  0  0  0  0  0  0  0  0  0  0
  1  7  4  0
  1 22  4  0
  2 17  4  0
  2 20  4  0
  2 28  4  0
  3  6  1  0
  3 19  1  0
  4 19  1  0
  4 26  1  0
  5 17  4  0
  5 18  4  0
  6 20  1  0
  6 26  1  0
  7 24  4  0
  8 15  4  0
  8 24  4  0
  9 14  4  0
  9 21  4  0
 10 12  4  0
 10 27  4  0
 11 12  4  0
 11 23  4  0
 13 23  4  0
 13 27  4  0
 14 20  4  0
 15 22  4  0
 16 18  4  0
 16 25  2  0
 16 28  4  0
 21 28  4  0
 24 27  1  0
M  END
$$$$

 Created by Python create_sdf_string function

 28 31  0  0  0  0  0  0  0  0999 V2000
   -1.0054  -13.0622   19.1198 C   0  0  0  0  0  0  0  0  0  0  0  0
    3.1478   -8.5360   28.5161 C   0  0  0  0  0  0  0  0  0  0  0  0
    0.5798   -7.1906   27.9330 C   0  0  0  0  0  0  0  0  0  0  0  0
    0.3978   -5.1561   26.6955 C   0  0  0  0  0  0  0  0  0  0  0  0
    2.3063  -10.0533   30.0125 C   0  0  0  0  0  0  0  0  0  0  0  0
    1.8591   -6.8254   27.4685 N   0  0  0  0  0  0  0  0  0  0  0  0
   -0.2167  -12.1055   18.5568 C   0  0  0  0  0  0  0  0  0  0  0  0
   -2.0661  -10.6994   18.1916 C   0  0  0  0  0  0  0  0  0  0  0  0
    5.2703   -7.5691   27.1123 C   0  0  0  0  0  0  0  0  0  0  0  0
    1.6204   -9.9887   17.2935 C   0  0  0  0  0  0  0  0  0  0  0  0
    1.8931   -7.9265   16.2047 C   0  0  0  0  0  0  0  0  0  0  0  0
    2.4396   -9.0801   16.7132 C   0  0  0  0  0  0  0  0  0  0  0  0
   -0.2575   -8.6234   16.8582 C   0  0  0  0  0  0  0  0  0  0  0  0
    4.0614   -7.0367   27.0106 N   0  0  0  0  0  0  0  0  0  0  0  0
   -2.9133  -11.6279   18.7578 C   0  0  0  0  0  0  0  0  0  0  0  0
    4.5688  -10.1291   29.5758 C   0  0  0  0  0  0  0  0  0  0  0  0
    2.1008   -9.0410   29.1852 N   0  0  0  0  0  0  0  0  0  0  0  0
    3.4829  -10.5697   30.2091 N   0  0  0  0  0  0  0  0  0  0  0  0
   -0.3363   -6.1172   27.5628 C   0  0  0  0  0  0  0  0  0  0  0  0
    3.0331   -7.4400   27.6362 C   0  0  0  0  0  0  0  0  0  0  0  0
    5.4553   -8.5933   27.9644 C   0  0  0  0  0  0  0  0  0  0  0  0
   -2.3870  -12.8440   19.2512 C   0  0  0  0  0  0  0  0  0  0  0  0
    0.5331   -7.6964   16.2751 C   0  0  0  0  0  0  0  0  0  0  0  0
   -0.6740  -10.8737   18.0482 C   0  0  0  0  0  0  0  0  0  0  0  0
    5.6751  -10.5870   29.7637 O   0  0  0  0  0  0  0  0  0  0  0  0
    1.7612   -5.6483   26.7172 C   0  0  0  0  0  0  0  0  0  0  0  0
    0.2221   -9.8326   17.4055 C   0  0  0  0  0  0  0  0  0  0  0  0
    4.3850   -9.0730   28.6745 C   0  0  0  0  0  0  0  0  0  0  0  0
  1  7  4  0
  1 22  4  0
  2 17  4  0
  2 20  4  0
  2 28  4  0
  3  6  1  0
  3 19  1  0
  4 19  1  0
  4 26  1  0
  5 17  4  0
  5 18  4  0
  6 20  1  0
  6 26  1  0
  7 24  4  0
  8 15  4  0
  8 24  4  0
  9 14  4  0
  9 21  4  0
 10 12  4  0
 10 27  4  0
 11 12  4  0
 11 23  4  0
 13 23  4  0
 13 27  4  0
 14 20  4  0
 15 22  4  0
 16 18  4  0
 16 25  2  0
 16 28  4  0
 21 28  4  0
 24 27  1  0
M  END
$$$$

 Created by Python create_sdf_string function

 28 31  0  0  0  0  0  0  0  0999 V2000
   -1.0054  -13.0622   19.1198 C   0  0  0  0  0  0  0  0  0  0  0  0
    3.1478   -8.5360   28.5161 C   0  0  0  0  0  0  0  0  0  0  0  0
    0.5798   -7.1906   27.9330 C   0  0  0  0  0  0  0  0  0  0  0  0
    0.3978   -5.1561   26.6955 C   0  0  0  0  0  0  0  0  0  0  0  0
    2.3063  -10.0533   30.0125 C   0  0  0  0  0  0  0  0  0  0  0  0
    1.8591   -6.8254   27.4685 N   0  0  0  0  0  0  0  0  0  0  0  0
   -0.2167  -12.1055   18.5568 C   0  0  0  0  0  0  0  0  0  0  0  0
   -2.0661  -10.6994   18.1916 C   0  0  0  0  0  0  0  0  0  0  0  0
    5.2703   -7.5691   27.1123 C   0  0  0  0  0  0  0  0  0  0  0  0
    1.6204   -9.9887   17.2935 C   0  0  0  0  0  0  0  0  0  0  0  0
    1.8931   -7.9265   16.2047 C   0  0  0  0  0  0  0  0  0  0  0  0
    2.4396   -9.0801   16.7132 C   0  0  0  0  0  0  0  0  0  0  0  0
   -0.2575   -8.6234   16.8582 C   0  0  0  0  0  0  0  0  0  0  0  0
    4.0614   -7.0367   27.0106 N   0  0  0  0  0  0  0  0  0  0  0  0
   -2.9133  -11.6279   18.7578 C   0  0  0  0  0  0  0  0  0  0  0  0
    4.5688  -10.1291   29.5758 C   0  0  0  0  0  0  0  0  0  0  0  0
    2.1008   -9.0410   29.1852 N   0  0  0  0  0  0  0  0  0  0  0  0
    3.4829  -10.5697   30.2091 N   0  0  0  0  0  0  0  0  0  0  0  0
   -0.3363   -6.1172   27.5628 C   0  0  0  0  0  0  0  0  0  0  0  0
    3.0331   -7.4400   27.6362 C   0  0  0  0  0  0  0  0  0  0  0  0
    5.4553   -8.5933   27.9644 C   0  0  0  0  0  0  0  0  0  0  0  0
   -2.3870  -12.8440   19.2512 C   0  0  0  0  0  0  0  0  0  0  0  0
    0.5331   -7.6964   16.2751 C   0  0  0  0  0  0  0  0  0  0  0  0
   -0.6740  -10.8737   18.0482 C   0  0  0  0  0  0  0  0  0  0  0  0
    5.6751  -10.5870   29.7637 O   0  0  0  0  0  0  0  0  0  0  0  0
    1.7612   -5.6483   26.7172 C   0  0  0  0  0  0  0  0  0  0  0  0
    0.2221   -9.8326   17.4055 C   0  0  0  0  0  0  0  0  0  0  0  0
    4.3850   -9.0730   28.6745 C   0  0  0  0  0  0  0  0  0  0  0  0
  1  7  4  0
  1 22  4  0
  2 17  4  0
  2 20  4  0
  2 28  4  0
  3  6  1  0
  3 19  1  0
  4 19  1  0
  4 26  1  0
  5 17  4  0
  5 18  4  0
  6 20  1  0
  6 26  1  0
  7 24  4  0
  8 15  4  0
  8 24  4  0
  9 14  4  0
  9 21  4  0
 10 12  4  0
 10 27  4  0
 11 12  4  0
 11 23  4  0
 13 23  4  0
 13 27  4  0
 14 20  4  0
 15 22  4  0
 16 18  4  0
 16 25  2  0
 16 28  4  0
 21 28  4  0
 24 27  1  0
M  END
$$$$

 Created by Python create_sdf_string function

 28 31  0  0  0  0  0  0  0  0999 V2000
   -1.0054  -13.0622   19.1198 C   0  0  0  0  0  0  0  0  0  0  0  0
    3.1478   -8.5360   28.5161 C   0  0  0  0  0  0  0  0  0  0  0  0
    0.5798   -7.1906   27.9330 C   0  0  0  0  0  0  0  0  0  0  0  0
    0.3978   -5.1561   26.6955 C   0  0  0  0  0  0  0  0  0  0  0  0
    2.3063  -10.0533   30.0125 C   0  0  0  0  0  0  0  0  0  0  0  0
    1.8591   -6.8254   27.4685 N   0  0  0  0  0  0  0  0  0  0  0  0
   -0.2167  -12.1055   18.5568 C   0  0  0  0  0  0  0  0  0  0  0  0
   -2.0661  -10.6994   18.1916 C   0  0  0  0  0  0  0  0  0  0  0  0
    5.2703   -7.5691   27.1123 C   0  0  0  0  0  0  0  0  0  0  0  0
    1.6204   -9.9887   17.2935 C   0  0  0  0  0  0  0  0  0  0  0  0
    1.8931   -7.9265   16.2047 C   0  0  0  0  0  0  0  0  0  0  0  0
    2.4396   -9.0801   16.7132 C   0  0  0  0  0  0  0  0  0  0  0  0
   -0.2575   -8.6234   16.8582 C   0  0  0  0  0  0  0  0  0  0  0  0
    4.0614   -7.0367   27.0106 N   0  0  0  0  0  0  0  0  0  0  0  0
   -2.9133  -11.6279   18.7578 C   0  0  0  0  0  0  0  0  0  0  0  0
    4.5688  -10.1291   29.5758 C   0  0  0  0  0  0  0  0  0  0  0  0
    2.1008   -9.0410   29.1852 N   0  0  0  0  0  0  0  0  0  0  0  0
    3.4829  -10.5697   30.2091 N   0  0  0  0  0  0  0  0  0  0  0  0
   -0.3363   -6.1172   27.5628 C   0  0  0  0  0  0  0  0  0  0  0  0
    3.0331   -7.4400   27.6362 C   0  0  0  0  0  0  0  0  0  0  0  0
    5.4553   -8.5933   27.9644 C   0  0  0  0  0  0  0  0  0  0  0  0
   -2.3870  -12.8440   19.2512 C   0  0  0  0  0  0  0  0  0  0  0  0
    0.5331   -7.6964   16.2751 C   0  0  0  0  0  0  0  0  0  0  0  0
   -0.6740  -10.8737   18.0482 C   0  0  0  0  0  0  0  0  0  0  0  0
    5.6751  -10.5870   29.7637 O   0  0  0  0  0  0  0  0  0  0  0  0
    1.7612   -5.6483   26.7172 C   0  0  0  0  0  0  0  0  0  0  0  0
    0.2221   -9.8326   17.4055 C   0  0  0  0  0  0  0  0  0  0  0  0
    4.3850   -9.0730   28.6745 C   0  0  0  0  0  0  0  0  0  0  0  0
  1  7  4  0
  1 22  4  0
  2 17  4  0
  2 20  4  0
  2 28  4  0
  3  6  1  0
  3 19  1  0
  4 19  1  0
  4 26  1  0
  5 17  4  0
  5 18  4  0
  6 20  1  0
  6 26  1  0
  7 24  4  0
  8 15  4  0
  8 24  4  0
  9 14  4  0
  9 21  4  0
 10 12  4  0
 10 27  4  0
 11 12  4  0
 11 23  4  0
 13 23  4  0
 13 27  4  0
 14 20  4  0
 15 22  4  0
 16 18  4  0
 16 25  2  0
 16 28  4  0
 21 28  4  0
 24 27  1  0
M  END
$$$$

 Created by Python create_sdf_string function

 28 31  0  0  0  0  0  0  0  0999 V2000
   -1.0054  -13.0622   19.1198 C   0  0  0  0  0  0  0  0  0  0  0  0
    3.1478   -8.5360   28.5161 C   0  0  0  0  0  0  0  0  0  0  0  0
    0.5798   -7.1906   27.9330 C   0  0  0  0  0  0  0  0  0  0  0  0
    0.3978   -5.1561   26.6955 C   0  0  0  0  0  0  0  0  0  0  0  0
    2.3063  -10.0533   30.0125 C   0  0  0  0  0  0  0  0  0  0  0  0
    1.8591   -6.8254   27.4685 N   0  0  0  0  0  0  0  0  0  0  0  0
   -0.2167  -12.1055   18.5568 C   0  0  0  0  0  0  0  0  0  0  0  0
   -2.0661  -10.6994   18.1916 C   0  0  0  0  0  0  0  0  0  0  0  0
    5.2703   -7.5691   27.1123 C   0  0  0  0  0  0  0  0  0  0  0  0
    1.6204   -9.9887   17.2935 C   0  0  0  0  0  0  0  0  0  0  0  0
    1.8931   -7.9265   16.2047 C   0  0  0  0  0  0  0  0  0  0  0  0
    2.4396   -9.0801   16.7132 C   0  0  0  0  0  0  0  0  0  0  0  0
   -0.2575   -8.6234   16.8582 C   0  0  0  0  0  0  0  0  0  0  0  0
    4.0614   -7.0367   27.0106 N   0  0  0  0  0  0  0  0  0  0  0  0
   -2.9133  -11.6279   18.7578 C   0  0  0  0  0  0  0  0  0  0  0  0
    4.5688  -10.1291   29.5758 C   0  0  0  0  0  0  0  0  0  0  0  0
    2.1008   -9.0410   29.1852 N   0  0  0  0  0  0  0  0  0  0  0  0
    3.4829  -10.5697   30.2091 N   0  0  0  0  0  0  0  0  0  0  0  0
   -0.3363   -6.1172   27.5628 C   0  0  0  0  0  0  0  0  0  0  0  0
    3.0331   -7.4400   27.6362 C   0  0  0  0  0  0  0  0  0  0  0  0
    5.4553   -8.5933   27.9644 C   0  0  0  0  0  0  0  0  0  0  0  0
   -2.3870  -12.8440   19.2512 C   0  0  0  0  0  0  0  0  0  0  0  0
    0.5331   -7.6964   16.2751 C   0  0  0  0  0  0  0  0  0  0  0  0
   -0.6740  -10.8737   18.0482 C   0  0  0  0  0  0  0  0  0  0  0  0
    5.6751  -10.5870   29.7637 O   0  0  0  0  0  0  0  0  0  0  0  0
    1.7612   -5.6483   26.7172 C   0  0  0  0  0  0  0  0  0  0  0  0
    0.2221   -9.8326   17.4055 C   0  0  0  0  0  0  0  0  0  0  0  0
    4.3850   -9.0730   28.6745 C   0  0  0  0  0  0  0  0  0  0  0  0
  1  7  4  0
  1 22  4  0
  2 17  4  0
  2 20  4  0
  2 28  4  0
  3  6  1  0
  3 19  1  0
  4 19  1  0
  4 26  1  0
  5 17  4  0
  5 18  4  0
  6 20  1  0
  6 26  1  0
  7 24  4  0
  8 15  4  0
  8 24  4  0
  9 14  4  0
  9 21  4  0
 10 12  4  0
 10 27  4  0
 11 12  4  0
 11 23  4  0
 13 23  4  0
 13 27  4  0
 14 20  4  0
 15 22  4  0
 16 18  4  0
 16 25  2  0
 16 28  4  0
 21 28  4  0
 24 27  1  0
M  END
$$$$

 Created by Python create_sdf_string function

 28 31  0  0  0  0  0  0  0  0999 V2000
   -1.0054  -13.0622   19.1198 C   0  0  0  0  0  0  0  0  0  0  0  0
    3.1478   -8.5360   28.5161 C   0  0  0  0  0  0  0  0  0  0  0  0
    0.5798   -7.1906   27.9330 C   0  0  0  0  0  0  0  0  0  0  0  0
    0.3978   -5.1561   26.6955 C   0  0  0  0  0  0  0  0  0  0  0  0
    2.3063  -10.0533   30.0125 C   0  0  0  0  0  0  0  0  0  0  0  0
    1.8591   -6.8254   27.4685 N   0  0  0  0  0  0  0  0  0  0  0  0
   -0.2167  -12.1055   18.5568 C   0  0  0  0  0  0  0  0  0  0  0  0
   -2.0661  -10.6994   18.1916 C   0  0  0  0  0  0  0  0  0  0  0  0
    5.2703   -7.5691   27.1123 C   0  0  0  0  0  0  0  0  0  0  0  0
    1.6204   -9.9887   17.2935 C   0  0  0  0  0  0  0  0  0  0  0  0
    1.8931   -7.9265   16.2047 C   0  0  0  0  0  0  0  0  0  0  0  0
    2.4396   -9.0801   16.7132 C   0  0  0  0  0  0  0  0  0  0  0  0
   -0.2575   -8.6234   16.8582 C   0  0  0  0  0  0  0  0  0  0  0  0
    4.0614   -7.0367   27.0106 N   0  0  0  0  0  0  0  0  0  0  0  0
   -2.9133  -11.6279   18.7578 C   0  0  0  0  0  0  0  0  0  0  0  0
    4.5688  -10.1291   29.5758 C   0  0  0  0  0  0  0  0  0  0  0  0
    2.1008   -9.0410   29.1852 N   0  0  0  0  0  0  0  0  0  0  0  0
    3.4829  -10.5697   30.2091 N   0  0  0  0  0  0  0  0  0  0  0  0
   -0.3363   -6.1172   27.5628 C   0  0  0  0  0  0  0  0  0  0  0  0
    3.0331   -7.4400   27.6362 C   0  0  0  0  0  0  0  0  0  0  0  0
    5.4553   -8.5933   27.9644 C   0  0  0  0  0  0  0  0  0  0  0  0
   -2.3870  -12.8440   19.2512 C   0  0  0  0  0  0  0  0  0  0  0  0
    0.5331   -7.6964   16.2751 C   0  0  0  0  0  0  0  0  0  0  0  0
   -0.6740  -10.8737   18.0482 C   0  0  0  0  0  0  0  0  0  0  0  0
    5.6751  -10.5870   29.7637 O   0  0  0  0  0  0  0  0  0  0  0  0
    1.7612   -5.6483   26.7172 C   0  0  0  0  0  0  0  0  0  0  0  0
    0.2221   -9.8326   17.4055 C   0  0  0  0  0  0  0  0  0  0  0  0
    4.3850   -9.0730   28.6745 C   0  0  0  0  0  0  0  0  0  0  0  0
  1  7  4  0
  1 22  4  0
  2 17  4  0
  2 20  4  0
  2 28  4  0
  3  6  1  0
  3 19  1  0
  4 19  1  0
  4 26  1  0
  5 17  4  0
  5 18  4  0
  6 20  1  0
  6 26  1  0
  7 24  4  0
  8 15  4  0
  8 24  4  0
  9 14  4  0
  9 21  4  0
 10 12  4  0
 10 27  4  0
 11 12  4  0
 11 23  4  0
 13 23  4  0
 13 27  4  0
 14 20  4  0
 15 22  4  0
 16 18  4  0
 16 25  2  0
 16 28  4  0
 21 28  4  0
 24 27  1  0
M  END
$$$$

 Created by Python create_sdf_string function

 28 31  0  0  0  0  0  0  0  0999 V2000
   -1.0054  -13.0622   19.1198 C   0  0  0  0  0  0  0  0  0  0  0  0
    3.1478   -8.5360   28.5161 C   0  0  0  0  0  0  0  0  0  0  0  0
    0.5798   -7.1906   27.9330 C   0  0  0  0  0  0  0  0  0  0  0  0
    0.3978   -5.1561   26.6955 C   0  0  0  0  0  0  0  0  0  0  0  0
    2.3063  -10.0533   30.0125 C   0  0  0  0  0  0  0  0  0  0  0  0
    1.8591   -6.8254   27.4685 N   0  0  0  0  0  0  0  0  0  0  0  0
   -0.2167  -12.1055   18.5568 C   0  0  0  0  0  0  0  0  0  0  0  0
   -2.0661  -10.6994   18.1916 C   0  0  0  0  0  0  0  0  0  0  0  0
    5.2703   -7.5691   27.1123 C   0  0  0  0  0  0  0  0  0  0  0  0
    1.6204   -9.9887   17.2935 C   0  0  0  0  0  0  0  0  0  0  0  0
    1.8931   -7.9265   16.2047 C   0  0  0  0  0  0  0  0  0  0  0  0
    2.4396   -9.0801   16.7132 C   0  0  0  0  0  0  0  0  0  0  0  0
   -0.2575   -8.6234   16.8582 C   0  0  0  0  0  0  0  0  0  0  0  0
    4.0614   -7.0367   27.0106 N   0  0  0  0  0  0  0  0  0  0  0  0
   -2.9133  -11.6279   18.7578 C   0  0  0  0  0  0  0  0  0  0  0  0
    4.5688  -10.1291   29.5758 C   0  0  0  0  0  0  0  0  0  0  0  0
    2.1008   -9.0410   29.1852 N   0  0  0  0  0  0  0  0  0  0  0  0
    3.4829  -10.5697   30.2091 N   0  0  0  0  0  0  0  0  0  0  0  0
   -0.3363   -6.1172   27.5628 C   0  0  0  0  0  0  0  0  0  0  0  0
    3.0331   -7.4400   27.6362 C   0  0  0  0  0  0  0  0  0  0  0  0
    5.4553   -8.5933   27.9644 C   0  0  0  0  0  0  0  0  0  0  0  0
   -2.3870  -12.8440   19.2512 C   0  0  0  0  0  0  0  0  0  0  0  0
    0.5331   -7.6964   16.2751 C   0  0  0  0  0  0  0  0  0  0  0  0
   -0.6740  -10.8737   18.0482 C   0  0  0  0  0  0  0  0  0  0  0  0
    5.6751  -10.5870   29.7637 O   0  0  0  0  0  0  0  0  0  0  0  0
    1.7612   -5.6483   26.7172 C   0  0  0  0  0  0  0  0  0  0  0  0
    0.2221   -9.8326   17.4055 C   0  0  0  0  0  0  0  0  0  0  0  0
    4.3850   -9.0730   28.6745 C   0  0  0  0  0  0  0  0  0  0  0  0
  1  7  4  0
  1 22  4  0
  2 17  4  0
  2 20  4  0
  2 28  4  0
  3  6  1  0
  3 19  1  0
  4 19  1  0
  4 26  1  0
  5 17  4  0
  5 18  4  0
  6 20  1  0
  6 26  1  0
  7 24  4  0
  8 15  4  0
  8 24  4  0
  9 14  4  0
  9 21  4  0
 10 12  4  0
 10 27  4  0
 11 12  4  0
 11 23  4  0
 13 23  4  0
 13 27  4  0
 14 20  4  0
 15 22  4  0
 16 18  4  0
 16 25  2  0
 16 28  4  0
 21 28  4  0
 24 27  1  0
M  END
$$$$

 Created by Python create_sdf_string function

 28 31  0  0  0  0  0  0  0  0999 V2000
   -1.0054  -13.0622   19.1198 C   0  0  0  0  0  0  0  0  0  0  0  0
    3.1478   -8.5360   28.5161 C   0  0  0  0  0  0  0  0  0  0  0  0
    0.5798   -7.1906   27.9330 C   0  0  0  0  0  0  0  0  0  0  0  0
    0.3978   -5.1561   26.6955 C   0  0  0  0  0  0  0  0  0  0  0  0
    2.3063  -10.0533   30.0125 C   0  0  0  0  0  0  0  0  0  0  0  0
    1.8591   -6.8254   27.4685 N   0  0  0  0  0  0  0  0  0  0  0  0
   -0.2167  -12.1055   18.5568 C   0  0  0  0  0  0  0  0  0  0  0  0
   -2.0661  -10.6994   18.1916 C   0  0  0  0  0  0  0  0  0  0  0  0
    5.2703   -7.5691   27.1123 C   0  0  0  0  0  0  0  0  0  0  0  0
    1.6204   -9.9887   17.2935 C   0  0  0  0  0  0  0  0  0  0  0  0
    1.8931   -7.9265   16.2047 C   0  0  0  0  0  0  0  0  0  0  0  0
    2.4396   -9.0801   16.7132 C   0  0  0  0  0  0  0  0  0  0  0  0
   -0.2575   -8.6234   16.8582 C   0  0  0  0  0  0  0  0  0  0  0  0
    4.0614   -7.0367   27.0106 N   0  0  0  0  0  0  0  0  0  0  0  0
   -2.9133  -11.6279   18.7578 C   0  0  0  0  0  0  0  0  0  0  0  0
    4.5688  -10.1291   29.5758 C   0  0  0  0  0  0  0  0  0  0  0  0
    2.1008   -9.0410   29.1852 N   0  0  0  0  0  0  0  0  0  0  0  0
    3.4829  -10.5697   30.2091 N   0  0  0  0  0  0  0  0  0  0  0  0
   -0.3363   -6.1172   27.5628 C   0  0  0  0  0  0  0  0  0  0  0  0
    3.0331   -7.4400   27.6362 C   0  0  0  0  0  0  0  0  0  0  0  0
    5.4553   -8.5933   27.9644 C   0  0  0  0  0  0  0  0  0  0  0  0
   -2.3870  -12.8440   19.2512 C   0  0  0  0  0  0  0  0  0  0  0  0
    0.5331   -7.6964   16.2751 C   0  0  0  0  0  0  0  0  0  0  0  0
   -0.6740  -10.8737   18.0482 C   0  0  0  0  0  0  0  0  0  0  0  0
    5.6751  -10.5870   29.7637 O   0  0  0  0  0  0  0  0  0  0  0  0
    1.7612   -5.6483   26.7172 C   0  0  0  0  0  0  0  0  0  0  0  0
    0.2221   -9.8326   17.4055 C   0  0  0  0  0  0  0  0  0  0  0  0
    4.3850   -9.0730   28.6745 C   0  0  0  0  0  0  0  0  0  0  0  0
  1  7  4  0
  1 22  4  0
  2 17  4  0
  2 20  4  0
  2 28  4  0
  3  6  1  0
  3 19  1  0
  4 19  1  0
  4 26  1  0
  5 17  4  0
  5 18  4  0
  6 20  1  0
  6 26  1  0
  7 24  4  0
  8 15  4  0
  8 24  4  0
  9 14  4  0
  9 21  4  0
 10 12  4  0
 10 27  4  0
 11 12  4  0
 11 23  4  0
 13 23  4  0
 13 27  4  0
 14 20  4  0
 15 22  4  0
 16 18  4  0
 16 25  2  0
 16 28  4  0
 21 28  4  0
 24 27  1  0
M  END
$$$$

 Created by Python create_sdf_string function

 28 31  0  0  0  0  0  0  0  0999 V2000
   -1.0054  -13.0622   19.1198 C   0  0  0  0  0  0  0  0  0  0  0  0
    3.1478   -8.5360   28.5161 C   0  0  0  0  0  0  0  0  0  0  0  0
    0.5798   -7.1906   27.9330 C   0  0  0  0  0  0  0  0  0  0  0  0
    0.3978   -5.1561   26.6955 C   0  0  0  0  0  0  0  0  0  0  0  0
    2.3063  -10.0533   30.0125 C   0  0  0  0  0  0  0  0  0  0  0  0
    1.8591   -6.8254   27.4685 N   0  0  0  0  0  0  0  0  0  0  0  0
   -0.2167  -12.1055   18.5568 C   0  0  0  0  0  0  0  0  0  0  0  0
   -2.0661  -10.6994   18.1916 C   0  0  0  0  0  0  0  0  0  0  0  0
    5.2703   -7.5691   27.1123 C   0  0  0  0  0  0  0  0  0  0  0  0
    1.6204   -9.9887   17.2935 C   0  0  0  0  0  0  0  0  0  0  0  0
    1.8931   -7.9265   16.2047 C   0  0  0  0  0  0  0  0  0  0  0  0
    2.4396   -9.0801   16.7132 C   0  0  0  0  0  0  0  0  0  0  0  0
   -0.2575   -8.6234   16.8582 C   0  0  0  0  0  0  0  0  0  0  0  0
    4.0614   -7.0367   27.0106 N   0  0  0  0  0  0  0  0  0  0  0  0
   -2.9133  -11.6279   18.7578 C   0  0  0  0  0  0  0  0  0  0  0  0
    4.5688  -10.1291   29.5758 C   0  0  0  0  0  0  0  0  0  0  0  0
    2.1008   -9.0410   29.1852 N   0  0  0  0  0  0  0  0  0  0  0  0
    3.4829  -10.5697   30.2091 N   0  0  0  0  0  0  0  0  0  0  0  0
   -0.3363   -6.1172   27.5628 C   0  0  0  0  0  0  0  0  0  0  0  0
    3.0331   -7.4400   27.6362 C   0  0  0  0  0  0  0  0  0  0  0  0
    5.4553   -8.5933   27.9644 C   0  0  0  0  0  0  0  0  0  0  0  0
   -2.3870  -12.8440   19.2512 C   0  0  0  0  0  0  0  0  0  0  0  0
    0.5331   -7.6964   16.2751 C   0  0  0  0  0  0  0  0  0  0  0  0
   -0.6740  -10.8737   18.0482 C   0  0  0  0  0  0  0  0  0  0  0  0
    5.6751  -10.5870   29.7637 O   0  0  0  0  0  0  0  0  0  0  0  0
    1.7612   -5.6483   26.7172 C   0  0  0  0  0  0  0  0  0  0  0  0
    0.2221   -9.8326   17.4055 C   0  0  0  0  0  0  0  0  0  0  0  0
    4.3850   -9.0730   28.6745 C   0  0  0  0  0  0  0  0  0  0  0  0
  1  7  4  0
  1 22  4  0
  2 17  4  0
  2 20  4  0
  2 28  4  0
  3  6  1  0
  3 19  1  0
  4 19  1  0
  4 26  1  0
  5 17  4  0
  5 18  4  0
  6 20  1  0
  6 26  1  0
  7 24  4  0
  8 15  4  0
  8 24  4  0
  9 14  4  0
  9 21  4  0
 10 12  4  0
 10 27  4  0
 11 12  4  0
 11 23  4  0
 13 23  4  0
 13 27  4  0
 14 20  4  0
 15 22  4  0
 16 18  4  0
 16 25  2  0
 16 28  4  0
 21 28  4  0
 24 27  1  0
M  END
$$$$

 Created by Python create_sdf_string function

 28 31  0  0  0  0  0  0  0  0999 V2000
   -1.0054  -13.0622   19.1198 C   0  0  0  0  0  0  0  0  0  0  0  0
    3.1478   -8.5360   28.5161 C   0  0  0  0  0  0  0  0  0  0  0  0
    0.5798   -7.1906   27.9330 C   0  0  0  0  0  0  0  0  0  0  0  0
    0.3978   -5.1561   26.6955 C   0  0  0  0  0  0  0  0  0  0  0  0
    2.3063  -10.0533   30.0125 C   0  0  0  0  0  0  0  0  0  0  0  0
    1.8591   -6.8254   27.4685 N   0  0  0  0  0  0  0  0  0  0  0  0
   -0.2167  -12.1055   18.5568 C   0  0  0  0  0  0  0  0  0  0  0  0
   -2.0661  -10.6994   18.1916 C   0  0  0  0  0  0  0  0  0  0  0  0
    5.2703   -7.5691   27.1123 C   0  0  0  0  0  0  0  0  0  0  0  0
    1.6204   -9.9887   17.2935 C   0  0  0  0  0  0  0  0  0  0  0  0
    1.8931   -7.9265   16.2047 C   0  0  0  0  0  0  0  0  0  0  0  0
    2.4396   -9.0801   16.7132 C   0  0  0  0  0  0  0  0  0  0  0  0
   -0.2575   -8.6234   16.8582 C   0  0  0  0  0  0  0  0  0  0  0  0
    4.0614   -7.0367   27.0106 N   0  0  0  0  0  0  0  0  0  0  0  0
   -2.9133  -11.6279   18.7578 C   0  0  0  0  0  0  0  0  0  0  0  0
    4.5688  -10.1291   29.5758 C   0  0  0  0  0  0  0  0  0  0  0  0
    2.1008   -9.0410   29.1852 N   0  0  0  0  0  0  0  0  0  0  0  0
    3.4829  -10.5697   30.2091 N   0  0  0  0  0  0  0  0  0  0  0  0
   -0.3363   -6.1172   27.5628 C   0  0  0  0  0  0  0  0  0  0  0  0
    3.0331   -7.4400   27.6362 C   0  0  0  0  0  0  0  0  0  0  0  0
    5.4553   -8.5933   27.9644 C   0  0  0  0  0  0  0  0  0  0  0  0
   -2.3870  -12.8440   19.2512 C   0  0  0  0  0  0  0  0  0  0  0  0
    0.5331   -7.6964   16.2751 C   0  0  0  0  0  0  0  0  0  0  0  0
   -0.6740  -10.8737   18.0482 C   0  0  0  0  0  0  0  0  0  0  0  0
    5.6751  -10.5870   29.7637 O   0  0  0  0  0  0  0  0  0  0  0  0
    1.7612   -5.6483   26.7172 C   0  0  0  0  0  0  0  0  0  0  0  0
    0.2221   -9.8326   17.4055 C   0  0  0  0  0  0  0  0  0  0  0  0
    4.3850   -9.0730   28.6745 C   0  0  0  0  0  0  0  0  0  0  0  0
  1  7  4  0
  1 22  4  0
  2 17  4  0
  2 20  4  0
  2 28  4  0
  3  6  1  0
  3 19  1  0
  4 19  1  0
  4 26  1  0
  5 17  4  0
  5 18  4  0
  6 20  1  0
  6 26  1  0
  7 24  4  0
  8 15  4  0
  8 24  4  0
  9 14  4  0
  9 21  4  0
 10 12  4  0
 10 27  4  0
 11 12  4  0
 11 23  4  0
 13 23  4  0
 13 27  4  0
 14 20  4  0
 15 22  4  0
 16 18  4  0
 16 25  2  0
 16 28  4  0
 21 28  4  0
 24 27  1  0
M  END
$$$$

 Created by Python create_sdf_string function

 28 31  0  0  0  0  0  0  0  0999 V2000
   -1.0054  -13.0622   19.1198 C   0  0  0  0  0  0  0  0  0  0  0  0
    3.1478   -8.5360   28.5161 C   0  0  0  0  0  0  0  0  0  0  0  0
    0.5798   -7.1906   27.9330 C   0  0  0  0  0  0  0  0  0  0  0  0
    0.3978   -5.1561   26.6955 C   0  0  0  0  0  0  0  0  0  0  0  0
    2.3063  -10.0533   30.0125 C   0  0  0  0  0  0  0  0  0  0  0  0
    1.8591   -6.8254   27.4685 N   0  0  0  0  0  0  0  0  0  0  0  0
   -0.2167  -12.1055   18.5568 C   0  0  0  0  0  0  0  0  0  0  0  0
   -2.0661  -10.6994   18.1916 C   0  0  0  0  0  0  0  0  0  0  0  0
    5.2703   -7.5691   27.1123 C   0  0  0  0  0  0  0  0  0  0  0  0
    1.6204   -9.9887   17.2935 C   0  0  0  0  0  0  0  0  0  0  0  0
    1.8931   -7.9265   16.2047 C   0  0  0  0  0  0  0  0  0  0  0  0
    2.4396   -9.0801   16.7132 C   0  0  0  0  0  0  0  0  0  0  0  0
   -0.2575   -8.6234   16.8582 C   0  0  0  0  0  0  0  0  0  0  0  0
    4.0614   -7.0367   27.0106 N   0  0  0  0  0  0  0  0  0  0  0  0
   -2.9133  -11.6279   18.7578 C   0  0  0  0  0  0  0  0  0  0  0  0
    4.5688  -10.1291   29.5758 C   0  0  0  0  0  0  0  0  0  0  0  0
    2.1008   -9.0410   29.1852 N   0  0  0  0  0  0  0  0  0  0  0  0
    3.4829  -10.5697   30.2091 N   0  0  0  0  0  0  0  0  0  0  0  0
   -0.3363   -6.1172   27.5628 C   0  0  0  0  0  0  0  0  0  0  0  0
    3.0331   -7.4400   27.6362 C   0  0  0  0  0  0  0  0  0  0  0  0
    5.4553   -8.5933   27.9644 C   0  0  0  0  0  0  0  0  0  0  0  0
   -2.3870  -12.8440   19.2512 C   0  0  0  0  0  0  0  0  0  0  0  0
    0.5331   -7.6964   16.2751 C   0  0  0  0  0  0  0  0  0  0  0  0
   -0.6740  -10.8737   18.0482 C   0  0  0  0  0  0  0  0  0  0  0  0
    5.6751  -10.5870   29.7637 O   0  0  0  0  0  0  0  0  0  0  0  0
    1.7612   -5.6483   26.7172 C   0  0  0  0  0  0  0  0  0  0  0  0
    0.2221   -9.8326   17.4055 C   0  0  0  0  0  0  0  0  0  0  0  0
    4.3850   -9.0730   28.6745 C   0  0  0  0  0  0  0  0  0  0  0  0
  1  7  4  0
  1 22  4  0
  2 17  4  0
  2 20  4  0
  2 28  4  0
  3  6  1  0
  3 19  1  0
  4 19  1  0
  4 26  1  0
  5 17  4  0
  5 18  4  0
  6 20  1  0
  6 26  1  0
  7 24  4  0
  8 15  4  0
  8 24  4  0
  9 14  4  0
  9 21  4  0
 10 12  4  0
 10 27  4  0
 11 12  4  0
 11 23  4  0
 13 23  4  0
 13 27  4  0
 14 20  4  0
 15 22  4  0
 16 18  4  0
 16 25  2  0
 16 28  4  0
 21 28  4  0
 24 27  1  0
M  END
$$$$

 Created by Python create_sdf_string function

 28 31  0  0  0  0  0  0  0  0999 V2000
   -1.0054  -13.0622   19.1198 C   0  0  0  0  0  0  0  0  0  0  0  0
    3.1478   -8.5360   28.5161 C   0  0  0  0  0  0  0  0  0  0  0  0
    0.5798   -7.1906   27.9330 C   0  0  0  0  0  0  0  0  0  0  0  0
    0.3978   -5.1561   26.6955 C   0  0  0  0  0  0  0  0  0  0  0  0
    2.3063  -10.0533   30.0125 C   0  0  0  0  0  0  0  0  0  0  0  0
    1.8591   -6.8254   27.4685 N   0  0  0  0  0  0  0  0  0  0  0  0
   -0.2167  -12.1055   18.5568 C   0  0  0  0  0  0  0  0  0  0  0  0
   -2.0661  -10.6994   18.1916 C   0  0  0  0  0  0  0  0  0  0  0  0
    5.2703   -7.5691   27.1123 C   0  0  0  0  0  0  0  0  0  0  0  0
    1.6204   -9.9887   17.2935 C   0  0  0  0  0  0  0  0  0  0  0  0
    1.8931   -7.9265   16.2047 C   0  0  0  0  0  0  0  0  0  0  0  0
    2.4396   -9.0801   16.7132 C   0  0  0  0  0  0  0  0  0  0  0  0
   -0.2575   -8.6234   16.8582 C   0  0  0  0  0  0  0  0  0  0  0  0
    4.0614   -7.0367   27.0106 N   0  0  0  0  0  0  0  0  0  0  0  0
   -2.9133  -11.6279   18.7578 C   0  0  0  0  0  0  0  0  0  0  0  0
    4.5688  -10.1291   29.5758 C   0  0  0  0  0  0  0  0  0  0  0  0
    2.1008   -9.0410   29.1852 N   0  0  0  0  0  0  0  0  0  0  0  0
    3.4829  -10.5697   30.2091 N   0  0  0  0  0  0  0  0  0  0  0  0
   -0.3363   -6.1172   27.5628 C   0  0  0  0  0  0  0  0  0  0  0  0
    3.0331   -7.4400   27.6362 C   0  0  0  0  0  0  0  0  0  0  0  0
    5.4553   -8.5933   27.9644 C   0  0  0  0  0  0  0  0  0  0  0  0
   -2.3870  -12.8440   19.2512 C   0  0  0  0  0  0  0  0  0  0  0  0
    0.5331   -7.6964   16.2751 C   0  0  0  0  0  0  0  0  0  0  0  0
   -0.6740  -10.8737   18.0482 C   0  0  0  0  0  0  0  0  0  0  0  0
    5.6751  -10.5870   29.7637 O   0  0  0  0  0  0  0  0  0  0  0  0
    1.7612   -5.6483   26.7172 C   0  0  0  0  0  0  0  0  0  0  0  0
    0.2221   -9.8326   17.4055 C   0  0  0  0  0  0  0  0  0  0  0  0
    4.3850   -9.0730   28.6745 C   0  0  0  0  0  0  0  0  0  0  0  0
  1  7  4  0
  1 22  4  0
  2 17  4  0
  2 20  4  0
  2 28  4  0
  3  6  1  0
  3 19  1  0
  4 19  1  0
  4 26  1  0
  5 17  4  0
  5 18  4  0
  6 20  1  0
  6 26  1  0
  7 24  4  0
  8 15  4  0
  8 24  4  0
  9 14  4  0
  9 21  4  0
 10 12  4  0
 10 27  4  0
 11 12  4  0
 11 23  4  0
 13 23  4  0
 13 27  4  0
 14 20  4  0
 15 22  4  0
 16 18  4  0
 16 25  2  0
 16 28  4  0
 21 28  4  0
 24 27  1  0
M  END
$$$$

 Created by Python create_sdf_string function

 28 31  0  0  0  0  0  0  0  0999 V2000
   -1.0054  -13.0622   19.1198 C   0  0  0  0  0  0  0  0  0  0  0  0
    3.1478   -8.5360   28.5161 C   0  0  0  0  0  0  0  0  0  0  0  0
    0.5798   -7.1906   27.9330 C   0  0  0  0  0  0  0  0  0  0  0  0
    0.3978   -5.1561   26.6955 C   0  0  0  0  0  0  0  0  0  0  0  0
    2.3063  -10.0533   30.0125 C   0  0  0  0  0  0  0  0  0  0  0  0
    1.8591   -6.8254   27.4685 N   0  0  0  0  0  0  0  0  0  0  0  0
   -0.2167  -12.1055   18.5568 C   0  0  0  0  0  0  0  0  0  0  0  0
   -2.0661  -10.6994   18.1916 C   0  0  0  0  0  0  0  0  0  0  0  0
    5.2703   -7.5691   27.1123 C   0  0  0  0  0  0  0  0  0  0  0  0
    1.6204   -9.9887   17.2935 C   0  0  0  0  0  0  0  0  0  0  0  0
    1.8931   -7.9265   16.2047 C   0  0  0  0  0  0  0  0  0  0  0  0
    2.4396   -9.0801   16.7132 C   0  0  0  0  0  0  0  0  0  0  0  0
   -0.2575   -8.6234   16.8582 C   0  0  0  0  0  0  0  0  0  0  0  0
    4.0614   -7.0367   27.0106 N   0  0  0  0  0  0  0  0  0  0  0  0
   -2.9133  -11.6279   18.7578 C   0  0  0  0  0  0  0  0  0  0  0  0
    4.5688  -10.1291   29.5758 C   0  0  0  0  0  0  0  0  0  0  0  0
    2.1008   -9.0410   29.1852 N   0  0  0  0  0  0  0  0  0  0  0  0
    3.4829  -10.5697   30.2091 N   0  0  0  0  0  0  0  0  0  0  0  0
   -0.3363   -6.1172   27.5628 C   0  0  0  0  0  0  0  0  0  0  0  0
    3.0331   -7.4400   27.6362 C   0  0  0  0  0  0  0  0  0  0  0  0
    5.4553   -8.5933   27.9644 C   0  0  0  0  0  0  0  0  0  0  0  0
   -2.3870  -12.8440   19.2512 C   0  0  0  0  0  0  0  0  0  0  0  0
    0.5331   -7.6964   16.2751 C   0  0  0  0  0  0  0  0  0  0  0  0
   -0.6740  -10.8737   18.0482 C   0  0  0  0  0  0  0  0  0  0  0  0
    5.6751  -10.5870   29.7637 O   0  0  0  0  0  0  0  0  0  0  0  0
    1.7612   -5.6483   26.7172 C   0  0  0  0  0  0  0  0  0  0  0  0
    0.2221   -9.8326   17.4055 C   0  0  0  0  0  0  0  0  0  0  0  0
    4.3850   -9.0730   28.6745 C   0  0  0  0  0  0  0  0  0  0  0  0
  1  7  4  0
  1 22  4  0
  2 17  4  0
  2 20  4  0
  2 28  4  0
  3  6  1  0
  3 19  1  0
  4 19  1  0
  4 26  1  0
  5 17  4  0
  5 18  4  0
  6 20  1  0
  6 26  1  0
  7 24  4  0
  8 15  4  0
  8 24  4  0
  9 14  4  0
  9 21  4  0
 10 12  4  0
 10 27  4  0
 11 12  4  0
 11 23  4  0
 13 23  4  0
 13 27  4  0
 14 20  4  0
 15 22  4  0
 16 18  4  0
 16 25  2  0
 16 28  4  0
 21 28  4  0
 24 27  1  0
M  END
$$$$

 Created by Python create_sdf_string function

 28 31  0  0  0  0  0  0  0  0999 V2000
   -1.0054  -13.0622   19.1198 C   0  0  0  0  0  0  0  0  0  0  0  0
    3.1478   -8.5360   28.5161 C   0  0  0  0  0  0  0  0  0  0  0  0
    0.5798   -7.1906   27.9330 C   0  0  0  0  0  0  0  0  0  0  0  0
    0.3978   -5.1561   26.6955 C   0  0  0  0  0  0  0  0  0  0  0  0
    2.3063  -10.0533   30.0125 C   0  0  0  0  0  0  0  0  0  0  0  0
    1.8591   -6.8254   27.4685 N   0  0  0  0  0  0  0  0  0  0  0  0
   -0.2167  -12.1055   18.5568 C   0  0  0  0  0  0  0  0  0  0  0  0
   -2.0661  -10.6994   18.1916 C   0  0  0  0  0  0  0  0  0  0  0  0
    5.2703   -7.5691   27.1123 C   0  0  0  0  0  0  0  0  0  0  0  0
    1.6204   -9.9887   17.2935 C   0  0  0  0  0  0  0  0  0  0  0  0
    1.8931   -7.9265   16.2047 C   0  0  0  0  0  0  0  0  0  0  0  0
    2.4396   -9.0801   16.7132 C   0  0  0  0  0  0  0  0  0  0  0  0
   -0.2575   -8.6234   16.8582 C   0  0  0  0  0  0  0  0  0  0  0  0
    4.0614   -7.0367   27.0106 N   0  0  0  0  0  0  0  0  0  0  0  0
   -2.9133  -11.6279   18.7578 C   0  0  0  0  0  0  0  0  0  0  0  0
    4.5688  -10.1291   29.5758 C   0  0  0  0  0  0  0  0  0  0  0  0
    2.1008   -9.0410   29.1852 N   0  0  0  0  0  0  0  0  0  0  0  0
    3.4829  -10.5697   30.2091 N   0  0  0  0  0  0  0  0  0  0  0  0
   -0.3363   -6.1172   27.5628 C   0  0  0  0  0  0  0  0  0  0  0  0
    3.0331   -7.4400   27.6362 C   0  0  0  0  0  0  0  0  0  0  0  0
    5.4553   -8.5933   27.9644 C   0  0  0  0  0  0  0  0  0  0  0  0
   -2.3870  -12.8440   19.2512 C   0  0  0  0  0  0  0  0  0  0  0  0
    0.5331   -7.6964   16.2751 C   0  0  0  0  0  0  0  0  0  0  0  0
   -0.6740  -10.8737   18.0482 C   0  0  0  0  0  0  0  0  0  0  0  0
    5.6751  -10.5870   29.7637 O   0  0  0  0  0  0  0  0  0  0  0  0
    1.7612   -5.6483   26.7172 C   0  0  0  0  0  0  0  0  0  0  0  0
    0.2221   -9.8326   17.4055 C   0  0  0  0  0  0  0  0  0  0  0  0
    4.3850   -9.0730   28.6745 C   0  0  0  0  0  0  0  0  0  0  0  0
  1  7  4  0
  1 22  4  0
  2 17  4  0
  2 20  4  0
  2 28  4  0
  3  6  1  0
  3 19  1  0
  4 19  1  0
  4 26  1  0
  5 17  4  0
  5 18  4  0
  6 20  1  0
  6 26  1  0
  7 24  4  0
  8 15  4  0
  8 24  4  0
  9 14  4  0
  9 21  4  0
 10 12  4  0
 10 27  4  0
 11 12  4  0
 11 23  4  0
 13 23  4  0
 13 27  4  0
 14 20  4  0
 15 22  4  0
 16 18  4  0
 16 25  2  0
 16 28  4  0
 21 28  4  0
 24 27  1  0
M  END
$$$$

 Created by Python create_sdf_string function

 28 31  0  0  0  0  0  0  0  0999 V2000
   -1.0054  -13.0622   19.1198 C   0  0  0  0  0  0  0  0  0  0  0  0
    3.1478   -8.5360   28.5161 C   0  0  0  0  0  0  0  0  0  0  0  0
    0.5798   -7.1906   27.9330 C   0  0  0  0  0  0  0  0  0  0  0  0
    0.3978   -5.1561   26.6955 C   0  0  0  0  0  0  0  0  0  0  0  0
    2.3063  -10.0533   30.0125 C   0  0  0  0  0  0  0  0  0  0  0  0
    1.8591   -6.8254   27.4685 N   0  0  0  0  0  0  0  0  0  0  0  0
   -0.2167  -12.1055   18.5568 C   0  0  0  0  0  0  0  0  0  0  0  0
   -2.0661  -10.6994   18.1916 C   0  0  0  0  0  0  0  0  0  0  0  0
    5.2703   -7.5691   27.1123 C   0  0  0  0  0  0  0  0  0  0  0  0
    1.6204   -9.9887   17.2935 C   0  0  0  0  0  0  0  0  0  0  0  0
    1.8931   -7.9265   16.2047 C   0  0  0  0  0  0  0  0  0  0  0  0
    2.4396   -9.0801   16.7132 C   0  0  0  0  0  0  0  0  0  0  0  0
   -0.2575   -8.6234   16.8582 C   0  0  0  0  0  0  0  0  0  0  0  0
    4.0614   -7.0367   27.0106 N   0  0  0  0  0  0  0  0  0  0  0  0
   -2.9133  -11.6279   18.7578 C   0  0  0  0  0  0  0  0  0  0  0  0
    4.5688  -10.1291   29.5758 C   0  0  0  0  0  0  0  0  0  0  0  0
    2.1008   -9.0410   29.1852 N   0  0  0  0  0  0  0  0  0  0  0  0
    3.4829  -10.5697   30.2091 N   0  0  0  0  0  0  0  0  0  0  0  0
   -0.3363   -6.1172   27.5628 C   0  0  0  0  0  0  0  0  0  0  0  0
    3.0331   -7.4400   27.6362 C   0  0  0  0  0  0  0  0  0  0  0  0
    5.4553   -8.5933   27.9644 C   0  0  0  0  0  0  0  0  0  0  0  0
   -2.3870  -12.8440   19.2512 C   0  0  0  0  0  0  0  0  0  0  0  0
    0.5331   -7.6964   16.2751 C   0  0  0  0  0  0  0  0  0  0  0  0
   -0.6740  -10.8737   18.0482 C   0  0  0  0  0  0  0  0  0  0  0  0
    5.6751  -10.5870   29.7637 O   0  0  0  0  0  0  0  0  0  0  0  0
    1.7612   -5.6483   26.7172 C   0  0  0  0  0  0  0  0  0  0  0  0
    0.2221   -9.8326   17.4055 C   0  0  0  0  0  0  0  0  0  0  0  0
    4.3850   -9.0730   28.6745 C   0  0  0  0  0  0  0  0  0  0  0  0
  1  7  4  0
  1 22  4  0
  2 17  4  0
  2 20  4  0
  2 28  4  0
  3  6  1  0
  3 19  1  0
  4 19  1  0
  4 26  1  0
  5 17  4  0
  5 18  4  0
  6 20  1  0
  6 26  1  0
  7 24  4  0
  8 15  4  0
  8 24  4  0
  9 14  4  0
  9 21  4  0
 10 12  4  0
 10 27  4  0
 11 12  4  0
 11 23  4  0
 13 23  4  0
 13 27  4  0
 14 20  4  0
 15 22  4  0
 16 18  4  0
 16 25  2  0
 16 28  4  0
 21 28  4  0
 24 27  1  0
M  END
$$$$

 Created by Python create_sdf_string function

 28 31  0  0  0  0  0  0  0  0999 V2000
   -1.0054  -13.0622   19.1198 C   0  0  0  0  0  0  0  0  0  0  0  0
    3.1478   -8.5360   28.5161 C   0  0  0  0  0  0  0  0  0  0  0  0
    0.5798   -7.1906   27.9330 C   0  0  0  0  0  0  0  0  0  0  0  0
    0.3978   -5.1561   26.6955 C   0  0  0  0  0  0  0  0  0  0  0  0
    2.3063  -10.0533   30.0125 C   0  0  0  0  0  0  0  0  0  0  0  0
    1.8591   -6.8254   27.4685 N   0  0  0  0  0  0  0  0  0  0  0  0
   -0.2167  -12.1055   18.5568 C   0  0  0  0  0  0  0  0  0  0  0  0
   -2.0661  -10.6994   18.1916 C   0  0  0  0  0  0  0  0  0  0  0  0
    5.2703   -7.5691   27.1123 C   0  0  0  0  0  0  0  0  0  0  0  0
    1.6204   -9.9887   17.2935 C   0  0  0  0  0  0  0  0  0  0  0  0
    1.8931   -7.9265   16.2047 C   0  0  0  0  0  0  0  0  0  0  0  0
    2.4396   -9.0801   16.7132 C   0  0  0  0  0  0  0  0  0  0  0  0
   -0.2575   -8.6234   16.8582 C   0  0  0  0  0  0  0  0  0  0  0  0
    4.0614   -7.0367   27.0106 N   0  0  0  0  0  0  0  0  0  0  0  0
   -2.9133  -11.6279   18.7578 C   0  0  0  0  0  0  0  0  0  0  0  0
    4.5688  -10.1291   29.5758 C   0  0  0  0  0  0  0  0  0  0  0  0
    2.1008   -9.0410   29.1852 N   0  0  0  0  0  0  0  0  0  0  0  0
    3.4829  -10.5697   30.2091 N   0  0  0  0  0  0  0  0  0  0  0  0
   -0.3363   -6.1172   27.5628 C   0  0  0  0  0  0  0  0  0  0  0  0
    3.0331   -7.4400   27.6362 C   0  0  0  0  0  0  0  0  0  0  0  0
    5.4553   -8.5933   27.9644 C   0  0  0  0  0  0  0  0  0  0  0  0
   -2.3870  -12.8440   19.2512 C   0  0  0  0  0  0  0  0  0  0  0  0
    0.5331   -7.6964   16.2751 C   0  0  0  0  0  0  0  0  0  0  0  0
   -0.6740  -10.8737   18.0482 C   0  0  0  0  0  0  0  0  0  0  0  0
    5.6751  -10.5870   29.7637 O   0  0  0  0  0  0  0  0  0  0  0  0
    1.7612   -5.6483   26.7172 C   0  0  0  0  0  0  0  0  0  0  0  0
    0.2221   -9.8326   17.4055 C   0  0  0  0  0  0  0  0  0  0  0  0
    4.3850   -9.0730   28.6745 C   0  0  0  0  0  0  0  0  0  0  0  0
  1  7  4  0
  1 22  4  0
  2 17  4  0
  2 20  4  0
  2 28  4  0
  3  6  1  0
  3 19  1  0
  4 19  1  0
  4 26  1  0
  5 17  4  0
  5 18  4  0
  6 20  1  0
  6 26  1  0
  7 24  4  0
  8 15  4  0
  8 24  4  0
  9 14  4  0
  9 21  4  0
 10 12  4  0
 10 27  4  0
 11 12  4  0
 11 23  4  0
 13 23  4  0
 13 27  4  0
 14 20  4  0
 15 22  4  0
 16 18  4  0
 16 25  2  0
 16 28  4  0
 21 28  4  0
 24 27  1  0
M  END
$$$$

 Created by Python create_sdf_string function

 28 31  0  0  0  0  0  0  0  0999 V2000
   -1.0054  -13.0622   19.1198 C   0  0  0  0  0  0  0  0  0  0  0  0
    3.1478   -8.5360   28.5161 C   0  0  0  0  0  0  0  0  0  0  0  0
    0.5798   -7.1906   27.9330 C   0  0  0  0  0  0  0  0  0  0  0  0
    0.3978   -5.1561   26.6955 C   0  0  0  0  0  0  0  0  0  0  0  0
    2.3063  -10.0533   30.0125 C   0  0  0  0  0  0  0  0  0  0  0  0
    1.8591   -6.8254   27.4685 N   0  0  0  0  0  0  0  0  0  0  0  0
   -0.2167  -12.1055   18.5568 C   0  0  0  0  0  0  0  0  0  0  0  0
   -2.0661  -10.6994   18.1916 C   0  0  0  0  0  0  0  0  0  0  0  0
    5.2703   -7.5691   27.1123 C   0  0  0  0  0  0  0  0  0  0  0  0
    1.6204   -9.9887   17.2935 C   0  0  0  0  0  0  0  0  0  0  0  0
    1.8931   -7.9265   16.2047 C   0  0  0  0  0  0  0  0  0  0  0  0
    2.4396   -9.0801   16.7132 C   0  0  0  0  0  0  0  0  0  0  0  0
   -0.2575   -8.6234   16.8582 C   0  0  0  0  0  0  0  0  0  0  0  0
    4.0614   -7.0367   27.0106 N   0  0  0  0  0  0  0  0  0  0  0  0
   -2.9133  -11.6279   18.7578 C   0  0  0  0  0  0  0  0  0  0  0  0
    4.5688  -10.1291   29.5758 C   0  0  0  0  0  0  0  0  0  0  0  0
    2.1008   -9.0410   29.1852 N   0  0  0  0  0  0  0  0  0  0  0  0
    3.4829  -10.5697   30.2091 N   0  0  0  0  0  0  0  0  0  0  0  0
   -0.3363   -6.1172   27.5628 C   0  0  0  0  0  0  0  0  0  0  0  0
    3.0331   -7.4400   27.6362 C   0  0  0  0  0  0  0  0  0  0  0  0
    5.4553   -8.5933   27.9644 C   0  0  0  0  0  0  0  0  0  0  0  0
   -2.3870  -12.8440   19.2512 C   0  0  0  0  0  0  0  0  0  0  0  0
    0.5331   -7.6964   16.2751 C   0  0  0  0  0  0  0  0  0  0  0  0
   -0.6740  -10.8737   18.0482 C   0  0  0  0  0  0  0  0  0  0  0  0
    5.6751  -10.5870   29.7637 O   0  0  0  0  0  0  0  0  0  0  0  0
    1.7612   -5.6483   26.7172 C   0  0  0  0  0  0  0  0  0  0  0  0
    0.2221   -9.8326   17.4055 C   0  0  0  0  0  0  0  0  0  0  0  0
    4.3850   -9.0730   28.6745 C   0  0  0  0  0  0  0  0  0  0  0  0
  1  7  4  0
  1 22  4  0
  2 17  4  0
  2 20  4  0
  2 28  4  0
  3  6  1  0
  3 19  1  0
  4 19  1  0
  4 26  1  0
  5 17  4  0
  5 18  4  0
  6 20  1  0
  6 26  1  0
  7 24  4  0
  8 15  4  0
  8 24  4  0
  9 14  4  0
  9 21  4  0
 10 12  4  0
 10 27  4  0
 11 12  4  0
 11 23  4  0
 13 23  4  0
 13 27  4  0
 14 20  4  0
 15 22  4  0
 16 18  4  0
 16 25  2  0
 16 28  4  0
 21 28  4  0
 24 27  1  0
M  END
$$$$

 Created by Python create_sdf_string function

 28 31  0  0  0  0  0  0  0  0999 V2000
   -1.0054  -13.0622   19.1198 C   0  0  0  0  0  0  0  0  0  0  0  0
    3.1478   -8.5360   28.5161 C   0  0  0  0  0  0  0  0  0  0  0  0
    0.5798   -7.1906   27.9330 C   0  0  0  0  0  0  0  0  0  0  0  0
    0.3978   -5.1561   26.6955 C   0  0  0  0  0  0  0  0  0  0  0  0
    2.3063  -10.0533   30.0125 C   0  0  0  0  0  0  0  0  0  0  0  0
    1.8591   -6.8254   27.4685 N   0  0  0  0  0  0  0  0  0  0  0  0
   -0.2167  -12.1055   18.5568 C   0  0  0  0  0  0  0  0  0  0  0  0
   -2.0661  -10.6994   18.1916 C   0  0  0  0  0  0  0  0  0  0  0  0
    5.2703   -7.5691   27.1123 C   0  0  0  0  0  0  0  0  0  0  0  0
    1.6204   -9.9887   17.2935 C   0  0  0  0  0  0  0  0  0  0  0  0
    1.8931   -7.9265   16.2047 C   0  0  0  0  0  0  0  0  0  0  0  0
    2.4396   -9.0801   16.7132 C   0  0  0  0  0  0  0  0  0  0  0  0
   -0.2575   -8.6234   16.8582 C   0  0  0  0  0  0  0  0  0  0  0  0
    4.0614   -7.0367   27.0106 N   0  0  0  0  0  0  0  0  0  0  0  0
   -2.9133  -11.6279   18.7578 C   0  0  0  0  0  0  0  0  0  0  0  0
    4.5688  -10.1291   29.5758 C   0  0  0  0  0  0  0  0  0  0  0  0
    2.1008   -9.0410   29.1852 N   0  0  0  0  0  0  0  0  0  0  0  0
    3.4829  -10.5697   30.2091 N   0  0  0  0  0  0  0  0  0  0  0  0
   -0.3363   -6.1172   27.5628 C   0  0  0  0  0  0  0  0  0  0  0  0
    3.0331   -7.4400   27.6362 C   0  0  0  0  0  0  0  0  0  0  0  0
    5.4553   -8.5933   27.9644 C   0  0  0  0  0  0  0  0  0  0  0  0
   -2.3870  -12.8440   19.2512 C   0  0  0  0  0  0  0  0  0  0  0  0
    0.5331   -7.6964   16.2751 C   0  0  0  0  0  0  0  0  0  0  0  0
   -0.6740  -10.8737   18.0482 C   0  0  0  0  0  0  0  0  0  0  0  0
    5.6751  -10.5870   29.7637 O   0  0  0  0  0  0  0  0  0  0  0  0
    1.7612   -5.6483   26.7172 C   0  0  0  0  0  0  0  0  0  0  0  0
    0.2221   -9.8326   17.4055 C   0  0  0  0  0  0  0  0  0  0  0  0
    4.3850   -9.0730   28.6745 C   0  0  0  0  0  0  0  0  0  0  0  0
  1  7  4  0
  1 22  4  0
  2 17  4  0
  2 20  4  0
  2 28  4  0
  3  6  1  0
  3 19  1  0
  4 19  1  0
  4 26  1  0
  5 17  4  0
  5 18  4  0
  6 20  1  0
  6 26  1  0
  7 24  4  0
  8 15  4  0
  8 24  4  0
  9 14  4  0
  9 21  4  0
 10 12  4  0
 10 27  4  0
 11 12  4  0
 11 23  4  0
 13 23  4  0
 13 27  4  0
 14 20  4  0
 15 22  4  0
 16 18  4  0
 16 25  2  0
 16 28  4  0
 21 28  4  0
 24 27  1  0
M  END
$$$$

 Created by Python create_sdf_string function

 28 31  0  0  0  0  0  0  0  0999 V2000
   -1.0054  -13.0622   19.1198 C   0  0  0  0  0  0  0  0  0  0  0  0
    3.1478   -8.5360   28.5161 C   0  0  0  0  0  0  0  0  0  0  0  0
    0.5798   -7.1906   27.9330 C   0  0  0  0  0  0  0  0  0  0  0  0
    0.3978   -5.1561   26.6955 C   0  0  0  0  0  0  0  0  0  0  0  0
    2.3063  -10.0533   30.0125 C   0  0  0  0  0  0  0  0  0  0  0  0
    1.8591   -6.8254   27.4685 N   0  0  0  0  0  0  0  0  0  0  0  0
   -0.2167  -12.1055   18.5568 C   0  0  0  0  0  0  0  0  0  0  0  0
   -2.0661  -10.6994   18.1916 C   0  0  0  0  0  0  0  0  0  0  0  0
    5.2703   -7.5691   27.1123 C   0  0  0  0  0  0  0  0  0  0  0  0
    1.6204   -9.9887   17.2935 C   0  0  0  0  0  0  0  0  0  0  0  0
    1.8931   -7.9265   16.2047 C   0  0  0  0  0  0  0  0  0  0  0  0
    2.4396   -9.0801   16.7132 C   0  0  0  0  0  0  0  0  0  0  0  0
   -0.2575   -8.6234   16.8582 C   0  0  0  0  0  0  0  0  0  0  0  0
    4.0614   -7.0367   27.0106 N   0  0  0  0  0  0  0  0  0  0  0  0
   -2.9133  -11.6279   18.7578 C   0  0  0  0  0  0  0  0  0  0  0  0
    4.5688  -10.1291   29.5758 C   0  0  0  0  0  0  0  0  0  0  0  0
    2.1008   -9.0410   29.1852 N   0  0  0  0  0  0  0  0  0  0  0  0
    3.4829  -10.5697   30.2091 N   0  0  0  0  0  0  0  0  0  0  0  0
   -0.3363   -6.1172   27.5628 C   0  0  0  0  0  0  0  0  0  0  0  0
    3.0331   -7.4400   27.6362 C   0  0  0  0  0  0  0  0  0  0  0  0
    5.4553   -8.5933   27.9644 C   0  0  0  0  0  0  0  0  0  0  0  0
   -2.3870  -12.8440   19.2512 C   0  0  0  0  0  0  0  0  0  0  0  0
    0.5331   -7.6964   16.2751 C   0  0  0  0  0  0  0  0  0  0  0  0
   -0.6740  -10.8737   18.0482 C   0  0  0  0  0  0  0  0  0  0  0  0
    5.6751  -10.5870   29.7637 O   0  0  0  0  0  0  0  0  0  0  0  0
    1.7612   -5.6483   26.7172 C   0  0  0  0  0  0  0  0  0  0  0  0
    0.2221   -9.8326   17.4055 C   0  0  0  0  0  0  0  0  0  0  0  0
    4.3850   -9.0730   28.6745 C   0  0  0  0  0  0  0  0  0  0  0  0
  1  7  4  0
  1 22  4  0
  2 17  4  0
  2 20  4  0
  2 28  4  0
  3  6  1  0
  3 19  1  0
  4 19  1  0
  4 26  1  0
  5 17  4  0
  5 18  4  0
  6 20  1  0
  6 26  1  0
  7 24  4  0
  8 15  4  0
  8 24  4  0
  9 14  4  0
  9 21  4  0
 10 12  4  0
 10 27  4  0
 11 12  4  0
 11 23  4  0
 13 23  4  0
 13 27  4  0
 14 20  4  0
 15 22  4  0
 16 18  4  0
 16 25  2  0
 16 28  4  0
 21 28  4  0
 24 27  1  0
M  END
$$$$

 Created by Python create_sdf_string function

 28 31  0  0  0  0  0  0  0  0999 V2000
   -1.0054  -13.0622   19.1198 C   0  0  0  0  0  0  0  0  0  0  0  0
    3.1478   -8.5360   28.5161 C   0  0  0  0  0  0  0  0  0  0  0  0
    0.5798   -7.1906   27.9330 C   0  0  0  0  0  0  0  0  0  0  0  0
    0.3978   -5.1561   26.6955 C   0  0  0  0  0  0  0  0  0  0  0  0
    2.3063  -10.0533   30.0125 C   0  0  0  0  0  0  0  0  0  0  0  0
    1.8591   -6.8254   27.4685 N   0  0  0  0  0  0  0  0  0  0  0  0
   -0.2167  -12.1055   18.5568 C   0  0  0  0  0  0  0  0  0  0  0  0
   -2.0661  -10.6994   18.1916 C   0  0  0  0  0  0  0  0  0  0  0  0
    5.2703   -7.5691   27.1123 C   0  0  0  0  0  0  0  0  0  0  0  0
    1.6204   -9.9887   17.2935 C   0  0  0  0  0  0  0  0  0  0  0  0
    1.8931   -7.9265   16.2047 C   0  0  0  0  0  0  0  0  0  0  0  0
    2.4396   -9.0801   16.7132 C   0  0  0  0  0  0  0  0  0  0  0  0
   -0.2575   -8.6234   16.8582 C   0  0  0  0  0  0  0  0  0  0  0  0
    4.0614   -7.0367   27.0106 N   0  0  0  0  0  0  0  0  0  0  0  0
   -2.9133  -11.6279   18.7578 C   0  0  0  0  0  0  0  0  0  0  0  0
    4.5688  -10.1291   29.5758 C   0  0  0  0  0  0  0  0  0  0  0  0
    2.1008   -9.0410   29.1852 N   0  0  0  0  0  0  0  0  0  0  0  0
    3.4829  -10.5697   30.2091 N   0  0  0  0  0  0  0  0  0  0  0  0
   -0.3363   -6.1172   27.5628 C   0  0  0  0  0  0  0  0  0  0  0  0
    3.0331   -7.4400   27.6362 C   0  0  0  0  0  0  0  0  0  0  0  0
    5.4553   -8.5933   27.9644 C   0  0  0  0  0  0  0  0  0  0  0  0
   -2.3870  -12.8440   19.2512 C   0  0  0  0  0  0  0  0  0  0  0  0
    0.5331   -7.6964   16.2751 C   0  0  0  0  0  0  0  0  0  0  0  0
   -0.6740  -10.8737   18.0482 C   0  0  0  0  0  0  0  0  0  0  0  0
    5.6751  -10.5870   29.7637 O   0  0  0  0  0  0  0  0  0  0  0  0
    1.7612   -5.6483   26.7172 C   0  0  0  0  0  0  0  0  0  0  0  0
    0.2221   -9.8326   17.4055 C   0  0  0  0  0  0  0  0  0  0  0  0
    4.3850   -9.0730   28.6745 C   0  0  0  0  0  0  0  0  0  0  0  0
  1  7  4  0
  1 22  4  0
  2 17  4  0
  2 20  4  0
  2 28  4  0
  3  6  1  0
  3 19  1  0
  4 19  1  0
  4 26  1  0
  5 17  4  0
  5 18  4  0
  6 20  1  0
  6 26  1  0
  7 24  4  0
  8 15  4  0
  8 24  4  0
  9 14  4  0
  9 21  4  0
 10 12  4  0
 10 27  4  0
 11 12  4  0
 11 23  4  0
 13 23  4  0
 13 27  4  0
 14 20  4  0
 15 22  4  0
 16 18  4  0
 16 25  2  0
 16 28  4  0
 21 28  4  0
 24 27  1  0
M  END
$$$$

 Created by Python create_sdf_string function

 28 31  0  0  0  0  0  0  0  0999 V2000
   -1.0054  -13.0622   19.1198 C   0  0  0  0  0  0  0  0  0  0  0  0
    3.1478   -8.5360   28.5161 C   0  0  0  0  0  0  0  0  0  0  0  0
    0.5798   -7.1906   27.9330 C   0  0  0  0  0  0  0  0  0  0  0  0
    0.3978   -5.1561   26.6955 C   0  0  0  0  0  0  0  0  0  0  0  0
    2.3063  -10.0533   30.0125 C   0  0  0  0  0  0  0  0  0  0  0  0
    1.8591   -6.8254   27.4685 N   0  0  0  0  0  0  0  0  0  0  0  0
   -0.2167  -12.1055   18.5568 C   0  0  0  0  0  0  0  0  0  0  0  0
   -2.0661  -10.6994   18.1916 C   0  0  0  0  0  0  0  0  0  0  0  0
    5.2703   -7.5691   27.1123 C   0  0  0  0  0  0  0  0  0  0  0  0
    1.6204   -9.9887   17.2935 C   0  0  0  0  0  0  0  0  0  0  0  0
    1.8931   -7.9265   16.2047 C   0  0  0  0  0  0  0  0  0  0  0  0
    2.4396   -9.0801   16.7132 C   0  0  0  0  0  0  0  0  0  0  0  0
   -0.2575   -8.6234   16.8582 C   0  0  0  0  0  0  0  0  0  0  0  0
    4.0614   -7.0367   27.0106 N   0  0  0  0  0  0  0  0  0  0  0  0
   -2.9133  -11.6279   18.7578 C   0  0  0  0  0  0  0  0  0  0  0  0
    4.5688  -10.1291   29.5758 C   0  0  0  0  0  0  0  0  0  0  0  0
    2.1008   -9.0410   29.1852 N   0  0  0  0  0  0  0  0  0  0  0  0
    3.4829  -10.5697   30.2091 N   0  0  0  0  0  0  0  0  0  0  0  0
   -0.3363   -6.1172   27.5628 C   0  0  0  0  0  0  0  0  0  0  0  0
    3.0331   -7.4400   27.6362 C   0  0  0  0  0  0  0  0  0  0  0  0
    5.4553   -8.5933   27.9644 C   0  0  0  0  0  0  0  0  0  0  0  0
   -2.3870  -12.8440   19.2512 C   0  0  0  0  0  0  0  0  0  0  0  0
    0.5331   -7.6964   16.2751 C   0  0  0  0  0  0  0  0  0  0  0  0
   -0.6740  -10.8737   18.0482 C   0  0  0  0  0  0  0  0  0  0  0  0
    5.6751  -10.5870   29.7637 O   0  0  0  0  0  0  0  0  0  0  0  0
    1.7612   -5.6483   26.7172 C   0  0  0  0  0  0  0  0  0  0  0  0
    0.2221   -9.8326   17.4055 C   0  0  0  0  0  0  0  0  0  0  0  0
    4.3850   -9.0730   28.6745 C   0  0  0  0  0  0  0  0  0  0  0  0
  1  7  4  0
  1 22  4  0
  2 17  4  0
  2 20  4  0
  2 28  4  0
  3  6  1  0
  3 19  1  0
  4 19  1  0
  4 26  1  0
  5 17  4  0
  5 18  4  0
  6 20  1  0
  6 26  1  0
  7 24  4  0
  8 15  4  0
  8 24  4  0
  9 14  4  0
  9 21  4  0
 10 12  4  0
 10 27  4  0
 11 12  4  0
 11 23  4  0
 13 23  4  0
 13 27  4  0
 14 20  4  0
 15 22  4  0
 16 18  4  0
 16 25  2  0
 16 28  4  0
 21 28  4  0
 24 27  1  0
M  END
$$$$

 Created by Python create_sdf_string function

 28 31  0  0  0  0  0  0  0  0999 V2000
   -1.0054  -13.0622   19.1198 C   0  0  0  0  0  0  0  0  0  0  0  0
    3.1478   -8.5360   28.5161 C   0  0  0  0  0  0  0  0  0  0  0  0
    0.5798   -7.1906   27.9330 C   0  0  0  0  0  0  0  0  0  0  0  0
    0.3978   -5.1561   26.6955 C   0  0  0  0  0  0  0  0  0  0  0  0
    2.3063  -10.0533   30.0125 C   0  0  0  0  0  0  0  0  0  0  0  0
    1.8591   -6.8254   27.4685 N   0  0  0  0  0  0  0  0  0  0  0  0
   -0.2167  -12.1055   18.5568 C   0  0  0  0  0  0  0  0  0  0  0  0
   -2.0661  -10.6994   18.1916 C   0  0  0  0  0  0  0  0  0  0  0  0
    5.2703   -7.5691   27.1123 C   0  0  0  0  0  0  0  0  0  0  0  0
    1.6204   -9.9887   17.2935 C   0  0  0  0  0  0  0  0  0  0  0  0
    1.8931   -7.9265   16.2047 C   0  0  0  0  0  0  0  0  0  0  0  0
    2.4396   -9.0801   16.7132 C   0  0  0  0  0  0  0  0  0  0  0  0
   -0.2575   -8.6234   16.8582 C   0  0  0  0  0  0  0  0  0  0  0  0
    4.0614   -7.0367   27.0106 N   0  0  0  0  0  0  0  0  0  0  0  0
   -2.9133  -11.6279   18.7578 C   0  0  0  0  0  0  0  0  0  0  0  0
    4.5688  -10.1291   29.5758 C   0  0  0  0  0  0  0  0  0  0  0  0
    2.1008   -9.0410   29.1852 N   0  0  0  0  0  0  0  0  0  0  0  0
    3.4829  -10.5697   30.2091 N   0  0  0  0  0  0  0  0  0  0  0  0
   -0.3363   -6.1172   27.5628 C   0  0  0  0  0  0  0  0  0  0  0  0
    3.0331   -7.4400   27.6362 C   0  0  0  0  0  0  0  0  0  0  0  0
    5.4553   -8.5933   27.9644 C   0  0  0  0  0  0  0  0  0  0  0  0
   -2.3870  -12.8440   19.2512 C   0  0  0  0  0  0  0  0  0  0  0  0
    0.5331   -7.6964   16.2751 C   0  0  0  0  0  0  0  0  0  0  0  0
   -0.6740  -10.8737   18.0482 C   0  0  0  0  0  0  0  0  0  0  0  0
    5.6751  -10.5870   29.7637 O   0  0  0  0  0  0  0  0  0  0  0  0
    1.7612   -5.6483   26.7172 C   0  0  0  0  0  0  0  0  0  0  0  0
    0.2221   -9.8326   17.4055 C   0  0  0  0  0  0  0  0  0  0  0  0
    4.3850   -9.0730   28.6745 C   0  0  0  0  0  0  0  0  0  0  0  0
  1  7  4  0
  1 22  4  0
  2 17  4  0
  2 20  4  0
  2 28  4  0
  3  6  1  0
  3 19  1  0
  4 19  1  0
  4 26  1  0
  5 17  4  0
  5 18  4  0
  6 20  1  0
  6 26  1  0
  7 24  4  0
  8 15  4  0
  8 24  4  0
  9 14  4  0
  9 21  4  0
 10 12  4  0
 10 27  4  0
 11 12  4  0
 11 23  4  0
 13 23  4  0
 13 27  4  0
 14 20  4  0
 15 22  4  0
 16 18  4  0
 16 25  2  0
 16 28  4  0
 21 28  4  0
 24 27  1  0
M  END
$$$$

 Created by Python create_sdf_string function

 28 31  0  0  0  0  0  0  0  0999 V2000
   -1.0054  -13.0622   19.1198 C   0  0  0  0  0  0  0  0  0  0  0  0
    3.1478   -8.5360   28.5161 C   0  0  0  0  0  0  0  0  0  0  0  0
    0.5798   -7.1906   27.9330 C   0  0  0  0  0  0  0  0  0  0  0  0
    0.3978   -5.1561   26.6955 C   0  0  0  0  0  0  0  0  0  0  0  0
    2.3063  -10.0533   30.0125 C   0  0  0  0  0  0  0  0  0  0  0  0
    1.8591   -6.8254   27.4685 N   0  0  0  0  0  0  0  0  0  0  0  0
   -0.2167  -12.1055   18.5568 C   0  0  0  0  0  0  0  0  0  0  0  0
   -2.0661  -10.6994   18.1916 C   0  0  0  0  0  0  0  0  0  0  0  0
    5.2703   -7.5691   27.1123 C   0  0  0  0  0  0  0  0  0  0  0  0
    1.6204   -9.9887   17.2935 C   0  0  0  0  0  0  0  0  0  0  0  0
    1.8931   -7.9265   16.2047 C   0  0  0  0  0  0  0  0  0  0  0  0
    2.4396   -9.0801   16.7132 C   0  0  0  0  0  0  0  0  0  0  0  0
   -0.2575   -8.6234   16.8582 C   0  0  0  0  0  0  0  0  0  0  0  0
    4.0614   -7.0367   27.0106 N   0  0  0  0  0  0  0  0  0  0  0  0
   -2.9133  -11.6279   18.7578 C   0  0  0  0  0  0  0  0  0  0  0  0
    4.5688  -10.1291   29.5758 C   0  0  0  0  0  0  0  0  0  0  0  0
    2.1008   -9.0410   29.1852 N   0  0  0  0  0  0  0  0  0  0  0  0
    3.4829  -10.5697   30.2091 N   0  0  0  0  0  0  0  0  0  0  0  0
   -0.3363   -6.1172   27.5628 C   0  0  0  0  0  0  0  0  0  0  0  0
    3.0331   -7.4400   27.6362 C   0  0  0  0  0  0  0  0  0  0  0  0
    5.4553   -8.5933   27.9644 C   0  0  0  0  0  0  0  0  0  0  0  0
   -2.3870  -12.8440   19.2512 C   0  0  0  0  0  0  0  0  0  0  0  0
    0.5331   -7.6964   16.2751 C   0  0  0  0  0  0  0  0  0  0  0  0
   -0.6740  -10.8737   18.0482 C   0  0  0  0  0  0  0  0  0  0  0  0
    5.6751  -10.5870   29.7637 O   0  0  0  0  0  0  0  0  0  0  0  0
    1.7612   -5.6483   26.7172 C   0  0  0  0  0  0  0  0  0  0  0  0
    0.2221   -9.8326   17.4055 C   0  0  0  0  0  0  0  0  0  0  0  0
    4.3850   -9.0730   28.6745 C   0  0  0  0  0  0  0  0  0  0  0  0
  1  7  4  0
  1 22  4  0
  2 17  4  0
  2 20  4  0
  2 28  4  0
  3  6  1  0
  3 19  1  0
  4 19  1  0
  4 26  1  0
  5 17  4  0
  5 18  4  0
  6 20  1  0
  6 26  1  0
  7 24  4  0
  8 15  4  0
  8 24  4  0
  9 14  4  0
  9 21  4  0
 10 12  4  0
 10 27  4  0
 11 12  4  0
 11 23  4  0
 13 23  4  0
 13 27  4  0
 14 20  4  0
 15 22  4  0
 16 18  4  0
 16 25  2  0
 16 28  4  0
 21 28  4  0
 24 27  1  0
M  END
$$$$

 Created by Python create_sdf_string function

 28 31  0  0  0  0  0  0  0  0999 V2000
   -1.0054  -13.0622   19.1198 C   0  0  0  0  0  0  0  0  0  0  0  0
    3.1478   -8.5360   28.5161 C   0  0  0  0  0  0  0  0  0  0  0  0
    0.5798   -7.1906   27.9330 C   0  0  0  0  0  0  0  0  0  0  0  0
    0.3978   -5.1561   26.6955 C   0  0  0  0  0  0  0  0  0  0  0  0
    2.3063  -10.0533   30.0125 C   0  0  0  0  0  0  0  0  0  0  0  0
    1.8591   -6.8254   27.4685 N   0  0  0  0  0  0  0  0  0  0  0  0
   -0.2167  -12.1055   18.5568 C   0  0  0  0  0  0  0  0  0  0  0  0
   -2.0661  -10.6994   18.1916 C   0  0  0  0  0  0  0  0  0  0  0  0
    5.2703   -7.5691   27.1123 C   0  0  0  0  0  0  0  0  0  0  0  0
    1.6204   -9.9887   17.2935 C   0  0  0  0  0  0  0  0  0  0  0  0
    1.8931   -7.9265   16.2047 C   0  0  0  0  0  0  0  0  0  0  0  0
    2.4396   -9.0801   16.7132 C   0  0  0  0  0  0  0  0  0  0  0  0
   -0.2575   -8.6234   16.8582 C   0  0  0  0  0  0  0  0  0  0  0  0
    4.0614   -7.0367   27.0106 N   0  0  0  0  0  0  0  0  0  0  0  0
   -2.9133  -11.6279   18.7578 C   0  0  0  0  0  0  0  0  0  0  0  0
    4.5688  -10.1291   29.5758 C   0  0  0  0  0  0  0  0  0  0  0  0
    2.1008   -9.0410   29.1852 N   0  0  0  0  0  0  0  0  0  0  0  0
    3.4829  -10.5697   30.2091 N   0  0  0  0  0  0  0  0  0  0  0  0
   -0.3363   -6.1172   27.5628 C   0  0  0  0  0  0  0  0  0  0  0  0
    3.0331   -7.4400   27.6362 C   0  0  0  0  0  0  0  0  0  0  0  0
    5.4553   -8.5933   27.9644 C   0  0  0  0  0  0  0  0  0  0  0  0
   -2.3870  -12.8440   19.2512 C   0  0  0  0  0  0  0  0  0  0  0  0
    0.5331   -7.6964   16.2751 C   0  0  0  0  0  0  0  0  0  0  0  0
   -0.6740  -10.8737   18.0482 C   0  0  0  0  0  0  0  0  0  0  0  0
    5.6751  -10.5870   29.7637 O   0  0  0  0  0  0  0  0  0  0  0  0
    1.7612   -5.6483   26.7172 C   0  0  0  0  0  0  0  0  0  0  0  0
    0.2221   -9.8326   17.4055 C   0  0  0  0  0  0  0  0  0  0  0  0
    4.3850   -9.0730   28.6745 C   0  0  0  0  0  0  0  0  0  0  0  0
  1  7  4  0
  1 22  4  0
  2 17  4  0
  2 20  4  0
  2 28  4  0
  3  6  1  0
  3 19  1  0
  4 19  1  0
  4 26  1  0
  5 17  4  0
  5 18  4  0
  6 20  1  0
  6 26  1  0
  7 24  4  0
  8 15  4  0
  8 24  4  0
  9 14  4  0
  9 21  4  0
 10 12  4  0
 10 27  4  0
 11 12  4  0
 11 23  4  0
 13 23  4  0
 13 27  4  0
 14 20  4  0
 15 22  4  0
 16 18  4  0
 16 25  2  0
 16 28  4  0
 21 28  4  0
 24 27  1  0
M  END
$$$$

 Created by Python create_sdf_string function

 28 31  0  0  0  0  0  0  0  0999 V2000
   -1.0054  -13.0622   19.1198 C   0  0  0  0  0  0  0  0  0  0  0  0
    3.1478   -8.5360   28.5161 C   0  0  0  0  0  0  0  0  0  0  0  0
    0.5798   -7.1906   27.9330 C   0  0  0  0  0  0  0  0  0  0  0  0
    0.3978   -5.1561   26.6955 C   0  0  0  0  0  0  0  0  0  0  0  0
    2.3063  -10.0533   30.0125 C   0  0  0  0  0  0  0  0  0  0  0  0
    1.8591   -6.8254   27.4685 N   0  0  0  0  0  0  0  0  0  0  0  0
   -0.2167  -12.1055   18.5568 C   0  0  0  0  0  0  0  0  0  0  0  0
   -2.0661  -10.6994   18.1916 C   0  0  0  0  0  0  0  0  0  0  0  0
    5.2703   -7.5691   27.1123 C   0  0  0  0  0  0  0  0  0  0  0  0
    1.6204   -9.9887   17.2935 C   0  0  0  0  0  0  0  0  0  0  0  0
    1.8931   -7.9265   16.2047 C   0  0  0  0  0  0  0  0  0  0  0  0
    2.4396   -9.0801   16.7132 C   0  0  0  0  0  0  0  0  0  0  0  0
   -0.2575   -8.6234   16.8582 C   0  0  0  0  0  0  0  0  0  0  0  0
    4.0614   -7.0367   27.0106 N   0  0  0  0  0  0  0  0  0  0  0  0
   -2.9133  -11.6279   18.7578 C   0  0  0  0  0  0  0  0  0  0  0  0
    4.5688  -10.1291   29.5758 C   0  0  0  0  0  0  0  0  0  0  0  0
    2.1008   -9.0410   29.1852 N   0  0  0  0  0  0  0  0  0  0  0  0
    3.4829  -10.5697   30.2091 N   0  0  0  0  0  0  0  0  0  0  0  0
   -0.3363   -6.1172   27.5628 C   0  0  0  0  0  0  0  0  0  0  0  0
    3.0331   -7.4400   27.6362 C   0  0  0  0  0  0  0  0  0  0  0  0
    5.4553   -8.5933   27.9644 C   0  0  0  0  0  0  0  0  0  0  0  0
   -2.3870  -12.8440   19.2512 C   0  0  0  0  0  0  0  0  0  0  0  0
    0.5331   -7.6964   16.2751 C   0  0  0  0  0  0  0  0  0  0  0  0
   -0.6740  -10.8737   18.0482 C   0  0  0  0  0  0  0  0  0  0  0  0
    5.6751  -10.5870   29.7637 O   0  0  0  0  0  0  0  0  0  0  0  0
    1.7612   -5.6483   26.7172 C   0  0  0  0  0  0  0  0  0  0  0  0
    0.2221   -9.8326   17.4055 C   0  0  0  0  0  0  0  0  0  0  0  0
    4.3850   -9.0730   28.6745 C   0  0  0  0  0  0  0  0  0  0  0  0
  1  7  4  0
  1 22  4  0
  2 17  4  0
  2 20  4  0
  2 28  4  0
  3  6  1  0
  3 19  1  0
  4 19  1  0
  4 26  1  0
  5 17  4  0
  5 18  4  0
  6 20  1  0
  6 26  1  0
  7 24  4  0
  8 15  4  0
  8 24  4  0
  9 14  4  0
  9 21  4  0
 10 12  4  0
 10 27  4  0
 11 12  4  0
 11 23  4  0
 13 23  4  0
 13 27  4  0
 14 20  4  0
 15 22  4  0
 16 18  4  0
 16 25  2  0
 16 28  4  0
 21 28  4  0
 24 27  1  0
M  END
$$$$

 Created by Python create_sdf_string function

 28 31  0  0  0  0  0  0  0  0999 V2000
   -1.0054  -13.0622   19.1198 C   0  0  0  0  0  0  0  0  0  0  0  0
    3.1478   -8.5360   28.5161 C   0  0  0  0  0  0  0  0  0  0  0  0
    0.5798   -7.1906   27.9330 C   0  0  0  0  0  0  0  0  0  0  0  0
    0.3978   -5.1561   26.6955 C   0  0  0  0  0  0  0  0  0  0  0  0
    2.3063  -10.0533   30.0125 C   0  0  0  0  0  0  0  0  0  0  0  0
    1.8591   -6.8254   27.4685 N   0  0  0  0  0  0  0  0  0  0  0  0
   -0.2167  -12.1055   18.5568 C   0  0  0  0  0  0  0  0  0  0  0  0
   -2.0661  -10.6994   18.1916 C   0  0  0  0  0  0  0  0  0  0  0  0
    5.2703   -7.5691   27.1123 C   0  0  0  0  0  0  0  0  0  0  0  0
    1.6204   -9.9887   17.2935 C   0  0  0  0  0  0  0  0  0  0  0  0
    1.8931   -7.9265   16.2047 C   0  0  0  0  0  0  0  0  0  0  0  0
    2.4396   -9.0801   16.7132 C   0  0  0  0  0  0  0  0  0  0  0  0
   -0.2575   -8.6234   16.8582 C   0  0  0  0  0  0  0  0  0  0  0  0
    4.0614   -7.0367   27.0106 N   0  0  0  0  0  0  0  0  0  0  0  0
   -2.9133  -11.6279   18.7578 C   0  0  0  0  0  0  0  0  0  0  0  0
    4.5688  -10.1291   29.5758 C   0  0  0  0  0  0  0  0  0  0  0  0
    2.1008   -9.0410   29.1852 N   0  0  0  0  0  0  0  0  0  0  0  0
    3.4829  -10.5697   30.2091 N   0  0  0  0  0  0  0  0  0  0  0  0
   -0.3363   -6.1172   27.5628 C   0  0  0  0  0  0  0  0  0  0  0  0
    3.0331   -7.4400   27.6362 C   0  0  0  0  0  0  0  0  0  0  0  0
    5.4553   -8.5933   27.9644 C   0  0  0  0  0  0  0  0  0  0  0  0
   -2.3870  -12.8440   19.2512 C   0  0  0  0  0  0  0  0  0  0  0  0
    0.5331   -7.6964   16.2751 C   0  0  0  0  0  0  0  0  0  0  0  0
   -0.6740  -10.8737   18.0482 C   0  0  0  0  0  0  0  0  0  0  0  0
    5.6751  -10.5870   29.7637 O   0  0  0  0  0  0  0  0  0  0  0  0
    1.7612   -5.6483   26.7172 C   0  0  0  0  0  0  0  0  0  0  0  0
    0.2221   -9.8326   17.4055 C   0  0  0  0  0  0  0  0  0  0  0  0
    4.3850   -9.0730   28.6745 C   0  0  0  0  0  0  0  0  0  0  0  0
  1  7  4  0
  1 22  4  0
  2 17  4  0
  2 20  4  0
  2 28  4  0
  3  6  1  0
  3 19  1  0
  4 19  1  0
  4 26  1  0
  5 17  4  0
  5 18  4  0
  6 20  1  0
  6 26  1  0
  7 24  4  0
  8 15  4  0
  8 24  4  0
  9 14  4  0
  9 21  4  0
 10 12  4  0
 10 27  4  0
 11 12  4  0
 11 23  4  0
 13 23  4  0
 13 27  4  0
 14 20  4  0
 15 22  4  0
 16 18  4  0
 16 25  2  0
 16 28  4  0
 21 28  4  0
 24 27  1  0
M  END
$$$$

 Created by Python create_sdf_string function

 28 31  0  0  0  0  0  0  0  0999 V2000
   -1.0054  -13.0622   19.1198 C   0  0  0  0  0  0  0  0  0  0  0  0
    3.1478   -8.5360   28.5161 C   0  0  0  0  0  0  0  0  0  0  0  0
    0.5798   -7.1906   27.9330 C   0  0  0  0  0  0  0  0  0  0  0  0
    0.3978   -5.1561   26.6955 C   0  0  0  0  0  0  0  0  0  0  0  0
    2.3063  -10.0533   30.0125 C   0  0  0  0  0  0  0  0  0  0  0  0
    1.8591   -6.8254   27.4685 N   0  0  0  0  0  0  0  0  0  0  0  0
   -0.2167  -12.1055   18.5568 C   0  0  0  0  0  0  0  0  0  0  0  0
   -2.0661  -10.6994   18.1916 C   0  0  0  0  0  0  0  0  0  0  0  0
    5.2703   -7.5691   27.1123 C   0  0  0  0  0  0  0  0  0  0  0  0
    1.6204   -9.9887   17.2935 C   0  0  0  0  0  0  0  0  0  0  0  0
    1.8931   -7.9265   16.2047 C   0  0  0  0  0  0  0  0  0  0  0  0
    2.4396   -9.0801   16.7132 C   0  0  0  0  0  0  0  0  0  0  0  0
   -0.2575   -8.6234   16.8582 C   0  0  0  0  0  0  0  0  0  0  0  0
    4.0614   -7.0367   27.0106 N   0  0  0  0  0  0  0  0  0  0  0  0
   -2.9133  -11.6279   18.7578 C   0  0  0  0  0  0  0  0  0  0  0  0
    4.5688  -10.1291   29.5758 C   0  0  0  0  0  0  0  0  0  0  0  0
    2.1008   -9.0410   29.1852 N   0  0  0  0  0  0  0  0  0  0  0  0
    3.4829  -10.5697   30.2091 N   0  0  0  0  0  0  0  0  0  0  0  0
   -0.3363   -6.1172   27.5628 C   0  0  0  0  0  0  0  0  0  0  0  0
    3.0331   -7.4400   27.6362 C   0  0  0  0  0  0  0  0  0  0  0  0
    5.4553   -8.5933   27.9644 C   0  0  0  0  0  0  0  0  0  0  0  0
   -2.3870  -12.8440   19.2512 C   0  0  0  0  0  0  0  0  0  0  0  0
    0.5331   -7.6964   16.2751 C   0  0  0  0  0  0  0  0  0  0  0  0
   -0.6740  -10.8737   18.0482 C   0  0  0  0  0  0  0  0  0  0  0  0
    5.6751  -10.5870   29.7637 O   0  0  0  0  0  0  0  0  0  0  0  0
    1.7612   -5.6483   26.7172 C   0  0  0  0  0  0  0  0  0  0  0  0
    0.2221   -9.8326   17.4055 C   0  0  0  0  0  0  0  0  0  0  0  0
    4.3850   -9.0730   28.6745 C   0  0  0  0  0  0  0  0  0  0  0  0
  1  7  4  0
  1 22  4  0
  2 17  4  0
  2 20  4  0
  2 28  4  0
  3  6  1  0
  3 19  1  0
  4 19  1  0
  4 26  1  0
  5 17  4  0
  5 18  4  0
  6 20  1  0
  6 26  1  0
  7 24  4  0
  8 15  4  0
  8 24  4  0
  9 14  4  0
  9 21  4  0
 10 12  4  0
 10 27  4  0
 11 12  4  0
 11 23  4  0
 13 23  4  0
 13 27  4  0
 14 20  4  0
 15 22  4  0
 16 18  4  0
 16 25  2  0
 16 28  4  0
 21 28  4  0
 24 27  1  0
M  END
$$$$

 Created by Python create_sdf_string function

 28 31  0  0  0  0  0  0  0  0999 V2000
   -1.0054  -13.0622   19.1198 C   0  0  0  0  0  0  0  0  0  0  0  0
    3.1478   -8.5360   28.5161 C   0  0  0  0  0  0  0  0  0  0  0  0
    0.5798   -7.1906   27.9330 C   0  0  0  0  0  0  0  0  0  0  0  0
    0.3978   -5.1561   26.6955 C   0  0  0  0  0  0  0  0  0  0  0  0
    2.3063  -10.0533   30.0125 C   0  0  0  0  0  0  0  0  0  0  0  0
    1.8591   -6.8254   27.4685 N   0  0  0  0  0  0  0  0  0  0  0  0
   -0.2167  -12.1055   18.5568 C   0  0  0  0  0  0  0  0  0  0  0  0
   -2.0661  -10.6994   18.1916 C   0  0  0  0  0  0  0  0  0  0  0  0
    5.2703   -7.5691   27.1123 C   0  0  0  0  0  0  0  0  0  0  0  0
    1.6204   -9.9887   17.2935 C   0  0  0  0  0  0  0  0  0  0  0  0
    1.8931   -7.9265   16.2047 C   0  0  0  0  0  0  0  0  0  0  0  0
    2.4396   -9.0801   16.7132 C   0  0  0  0  0  0  0  0  0  0  0  0
   -0.2575   -8.6234   16.8582 C   0  0  0  0  0  0  0  0  0  0  0  0
    4.0614   -7.0367   27.0106 N   0  0  0  0  0  0  0  0  0  0  0  0
   -2.9133  -11.6279   18.7578 C   0  0  0  0  0  0  0  0  0  0  0  0
    4.5688  -10.1291   29.5758 C   0  0  0  0  0  0  0  0  0  0  0  0
    2.1008   -9.0410   29.1852 N   0  0  0  0  0  0  0  0  0  0  0  0
    3.4829  -10.5697   30.2091 N   0  0  0  0  0  0  0  0  0  0  0  0
   -0.3363   -6.1172   27.5628 C   0  0  0  0  0  0  0  0  0  0  0  0
    3.0331   -7.4400   27.6362 C   0  0  0  0  0  0  0  0  0  0  0  0
    5.4553   -8.5933   27.9644 C   0  0  0  0  0  0  0  0  0  0  0  0
   -2.3870  -12.8440   19.2512 C   0  0  0  0  0  0  0  0  0  0  0  0
    0.5331   -7.6964   16.2751 C   0  0  0  0  0  0  0  0  0  0  0  0
   -0.6740  -10.8737   18.0482 C   0  0  0  0  0  0  0  0  0  0  0  0
    5.6751  -10.5870   29.7637 O   0  0  0  0  0  0  0  0  0  0  0  0
    1.7612   -5.6483   26.7172 C   0  0  0  0  0  0  0  0  0  0  0  0
    0.2221   -9.8326   17.4055 C   0  0  0  0  0  0  0  0  0  0  0  0
    4.3850   -9.0730   28.6745 C   0  0  0  0  0  0  0  0  0  0  0  0
  1  7  4  0
  1 22  4  0
  2 17  4  0
  2 20  4  0
  2 28  4  0
  3  6  1  0
  3 19  1  0
  4 19  1  0
  4 26  1  0
  5 17  4  0
  5 18  4  0
  6 20  1  0
  6 26  1  0
  7 24  4  0
  8 15  4  0
  8 24  4  0
  9 14  4  0
  9 21  4  0
 10 12  4  0
 10 27  4  0
 11 12  4  0
 11 23  4  0
 13 23  4  0
 13 27  4  0
 14 20  4  0
 15 22  4  0
 16 18  4  0
 16 25  2  0
 16 28  4  0
 21 28  4  0
 24 27  1  0
M  END
$$$$

 Created by Python create_sdf_string function

 28 31  0  0  0  0  0  0  0  0999 V2000
   -1.0054  -13.0622   19.1198 C   0  0  0  0  0  0  0  0  0  0  0  0
    3.1478   -8.5360   28.5161 C   0  0  0  0  0  0  0  0  0  0  0  0
    0.5798   -7.1906   27.9330 C   0  0  0  0  0  0  0  0  0  0  0  0
    0.3978   -5.1561   26.6955 C   0  0  0  0  0  0  0  0  0  0  0  0
    2.3063  -10.0533   30.0125 C   0  0  0  0  0  0  0  0  0  0  0  0
    1.8591   -6.8254   27.4685 N   0  0  0  0  0  0  0  0  0  0  0  0
   -0.2167  -12.1055   18.5568 C   0  0  0  0  0  0  0  0  0  0  0  0
   -2.0661  -10.6994   18.1916 C   0  0  0  0  0  0  0  0  0  0  0  0
    5.2703   -7.5691   27.1123 C   0  0  0  0  0  0  0  0  0  0  0  0
    1.6204   -9.9887   17.2935 C   0  0  0  0  0  0  0  0  0  0  0  0
    1.8931   -7.9265   16.2047 C   0  0  0  0  0  0  0  0  0  0  0  0
    2.4396   -9.0801   16.7132 C   0  0  0  0  0  0  0  0  0  0  0  0
   -0.2575   -8.6234   16.8582 C   0  0  0  0  0  0  0  0  0  0  0  0
    4.0614   -7.0367   27.0106 N   0  0  0  0  0  0  0  0  0  0  0  0
   -2.9133  -11.6279   18.7578 C   0  0  0  0  0  0  0  0  0  0  0  0
    4.5688  -10.1291   29.5758 C   0  0  0  0  0  0  0  0  0  0  0  0
    2.1008   -9.0410   29.1852 N   0  0  0  0  0  0  0  0  0  0  0  0
    3.4829  -10.5697   30.2091 N   0  0  0  0  0  0  0  0  0  0  0  0
   -0.3363   -6.1172   27.5628 C   0  0  0  0  0  0  0  0  0  0  0  0
    3.0331   -7.4400   27.6362 C   0  0  0  0  0  0  0  0  0  0  0  0
    5.4553   -8.5933   27.9644 C   0  0  0  0  0  0  0  0  0  0  0  0
   -2.3870  -12.8440   19.2512 C   0  0  0  0  0  0  0  0  0  0  0  0
    0.5331   -7.6964   16.2751 C   0  0  0  0  0  0  0  0  0  0  0  0
   -0.6740  -10.8737   18.0482 C   0  0  0  0  0  0  0  0  0  0  0  0
    5.6751  -10.5870   29.7637 O   0  0  0  0  0  0  0  0  0  0  0  0
    1.7612   -5.6483   26.7172 C   0  0  0  0  0  0  0  0  0  0  0  0
    0.2221   -9.8326   17.4055 C   0  0  0  0  0  0  0  0  0  0  0  0
    4.3850   -9.0730   28.6745 C   0  0  0  0  0  0  0  0  0  0  0  0
  1  7  4  0
  1 22  4  0
  2 17  4  0
  2 20  4  0
  2 28  4  0
  3  6  1  0
  3 19  1  0
  4 19  1  0
  4 26  1  0
  5 17  4  0
  5 18  4  0
  6 20  1  0
  6 26  1  0
  7 24  4  0
  8 15  4  0
  8 24  4  0
  9 14  4  0
  9 21  4  0
 10 12  4  0
 10 27  4  0
 11 12  4  0
 11 23  4  0
 13 23  4  0
 13 27  4  0
 14 20  4  0
 15 22  4  0
 16 18  4  0
 16 25  2  0
 16 28  4  0
 21 28  4  0
 24 27  1  0
M  END
$$$$

 Created by Python create_sdf_string function

 28 31  0  0  0  0  0  0  0  0999 V2000
   -1.0054  -13.0622   19.1198 C   0  0  0  0  0  0  0  0  0  0  0  0
    3.1478   -8.5360   28.5161 C   0  0  0  0  0  0  0  0  0  0  0  0
    0.5798   -7.1906   27.9330 C   0  0  0  0  0  0  0  0  0  0  0  0
    0.3978   -5.1561   26.6955 C   0  0  0  0  0  0  0  0  0  0  0  0
    2.3063  -10.0533   30.0125 C   0  0  0  0  0  0  0  0  0  0  0  0
    1.8591   -6.8254   27.4685 N   0  0  0  0  0  0  0  0  0  0  0  0
   -0.2167  -12.1055   18.5568 C   0  0  0  0  0  0  0  0  0  0  0  0
   -2.0661  -10.6994   18.1916 C   0  0  0  0  0  0  0  0  0  0  0  0
    5.2703   -7.5691   27.1123 C   0  0  0  0  0  0  0  0  0  0  0  0
    1.6204   -9.9887   17.2935 C   0  0  0  0  0  0  0  0  0  0  0  0
    1.8931   -7.9265   16.2047 C   0  0  0  0  0  0  0  0  0  0  0  0
    2.4396   -9.0801   16.7132 C   0  0  0  0  0  0  0  0  0  0  0  0
   -0.2575   -8.6234   16.8582 C   0  0  0  0  0  0  0  0  0  0  0  0
    4.0614   -7.0367   27.0106 N   0  0  0  0  0  0  0  0  0  0  0  0
   -2.9133  -11.6279   18.7578 C   0  0  0  0  0  0  0  0  0  0  0  0
    4.5688  -10.1291   29.5758 C   0  0  0  0  0  0  0  0  0  0  0  0
    2.1008   -9.0410   29.1852 N   0  0  0  0  0  0  0  0  0  0  0  0
    3.4829  -10.5697   30.2091 N   0  0  0  0  0  0  0  0  0  0  0  0
   -0.3363   -6.1172   27.5628 C   0  0  0  0  0  0  0  0  0  0  0  0
    3.0331   -7.4400   27.6362 C   0  0  0  0  0  0  0  0  0  0  0  0
    5.4553   -8.5933   27.9644 C   0  0  0  0  0  0  0  0  0  0  0  0
   -2.3870  -12.8440   19.2512 C   0  0  0  0  0  0  0  0  0  0  0  0
    0.5331   -7.6964   16.2751 C   0  0  0  0  0  0  0  0  0  0  0  0
   -0.6740  -10.8737   18.0482 C   0  0  0  0  0  0  0  0  0  0  0  0
    5.6751  -10.5870   29.7637 O   0  0  0  0  0  0  0  0  0  0  0  0
    1.7612   -5.6483   26.7172 C   0  0  0  0  0  0  0  0  0  0  0  0
    0.2221   -9.8326   17.4055 C   0  0  0  0  0  0  0  0  0  0  0  0
    4.3850   -9.0730   28.6745 C   0  0  0  0  0  0  0  0  0  0  0  0
  1  7  4  0
  1 22  4  0
  2 17  4  0
  2 20  4  0
  2 28  4  0
  3  6  1  0
  3 19  1  0
  4 19  1  0
  4 26  1  0
  5 17  4  0
  5 18  4  0
  6 20  1  0
  6 26  1  0
  7 24  4  0
  8 15  4  0
  8 24  4  0
  9 14  4  0
  9 21  4  0
 10 12  4  0
 10 27  4  0
 11 12  4  0
 11 23  4  0
 13 23  4  0
 13 27  4  0
 14 20  4  0
 15 22  4  0
 16 18  4  0
 16 25  2  0
 16 28  4  0
 21 28  4  0
 24 27  1  0
M  END
$$$$

 Created by Python create_sdf_string function

 28 31  0  0  0  0  0  0  0  0999 V2000
   -1.0054  -13.0622   19.1198 C   0  0  0  0  0  0  0  0  0  0  0  0
    3.1478   -8.5360   28.5161 C   0  0  0  0  0  0  0  0  0  0  0  0
    0.5798   -7.1906   27.9330 C   0  0  0  0  0  0  0  0  0  0  0  0
    0.3978   -5.1561   26.6955 C   0  0  0  0  0  0  0  0  0  0  0  0
    2.3063  -10.0533   30.0125 C   0  0  0  0  0  0  0  0  0  0  0  0
    1.8591   -6.8254   27.4685 N   0  0  0  0  0  0  0  0  0  0  0  0
   -0.2167  -12.1055   18.5568 C   0  0  0  0  0  0  0  0  0  0  0  0
   -2.0661  -10.6994   18.1916 C   0  0  0  0  0  0  0  0  0  0  0  0
    5.2703   -7.5691   27.1123 C   0  0  0  0  0  0  0  0  0  0  0  0
    1.6204   -9.9887   17.2935 C   0  0  0  0  0  0  0  0  0  0  0  0
    1.8931   -7.9265   16.2047 C   0  0  0  0  0  0  0  0  0  0  0  0
    2.4396   -9.0801   16.7132 C   0  0  0  0  0  0  0  0  0  0  0  0
   -0.2575   -8.6234   16.8582 C   0  0  0  0  0  0  0  0  0  0  0  0
    4.0614   -7.0367   27.0106 N   0  0  0  0  0  0  0  0  0  0  0  0
   -2.9133  -11.6279   18.7578 C   0  0  0  0  0  0  0  0  0  0  0  0
    4.5688  -10.1291   29.5758 C   0  0  0  0  0  0  0  0  0  0  0  0
    2.1008   -9.0410   29.1852 N   0  0  0  0  0  0  0  0  0  0  0  0
    3.4829  -10.5697   30.2091 N   0  0  0  0  0  0  0  0  0  0  0  0
   -0.3363   -6.1172   27.5628 C   0  0  0  0  0  0  0  0  0  0  0  0
    3.0331   -7.4400   27.6362 C   0  0  0  0  0  0  0  0  0  0  0  0
    5.4553   -8.5933   27.9644 C   0  0  0  0  0  0  0  0  0  0  0  0
   -2.3870  -12.8440   19.2512 C   0  0  0  0  0  0  0  0  0  0  0  0
    0.5331   -7.6964   16.2751 C   0  0  0  0  0  0  0  0  0  0  0  0
   -0.6740  -10.8737   18.0482 C   0  0  0  0  0  0  0  0  0  0  0  0
    5.6751  -10.5870   29.7637 O   0  0  0  0  0  0  0  0  0  0  0  0
    1.7612   -5.6483   26.7172 C   0  0  0  0  0  0  0  0  0  0  0  0
    0.2221   -9.8326   17.4055 C   0  0  0  0  0  0  0  0  0  0  0  0
    4.3850   -9.0730   28.6745 C   0  0  0  0  0  0  0  0  0  0  0  0
  1  7  4  0
  1 22  4  0
  2 17  4  0
  2 20  4  0
  2 28  4  0
  3  6  1  0
  3 19  1  0
  4 19  1  0
  4 26  1  0
  5 17  4  0
  5 18  4  0
  6 20  1  0
  6 26  1  0
  7 24  4  0
  8 15  4  0
  8 24  4  0
  9 14  4  0
  9 21  4  0
 10 12  4  0
 10 27  4  0
 11 12  4  0
 11 23  4  0
 13 23  4  0
 13 27  4  0
 14 20  4  0
 15 22  4  0
 16 18  4  0
 16 25  2  0
 16 28  4  0
 21 28  4  0
 24 27  1  0
M  END
$$$$

 Created by Python create_sdf_string function

 28 31  0  0  0  0  0  0  0  0999 V2000
   -1.0054  -13.0622   19.1198 C   0  0  0  0  0  0  0  0  0  0  0  0
    3.1478   -8.5360   28.5161 C   0  0  0  0  0  0  0  0  0  0  0  0
    0.5798   -7.1906   27.9330 C   0  0  0  0  0  0  0  0  0  0  0  0
    0.3978   -5.1561   26.6955 C   0  0  0  0  0  0  0  0  0  0  0  0
    2.3063  -10.0533   30.0125 C   0  0  0  0  0  0  0  0  0  0  0  0
    1.8591   -6.8254   27.4685 N   0  0  0  0  0  0  0  0  0  0  0  0
   -0.2167  -12.1055   18.5568 C   0  0  0  0  0  0  0  0  0  0  0  0
   -2.0661  -10.6994   18.1916 C   0  0  0  0  0  0  0  0  0  0  0  0
    5.2703   -7.5691   27.1123 C   0  0  0  0  0  0  0  0  0  0  0  0
    1.6204   -9.9887   17.2935 C   0  0  0  0  0  0  0  0  0  0  0  0
    1.8931   -7.9265   16.2047 C   0  0  0  0  0  0  0  0  0  0  0  0
    2.4396   -9.0801   16.7132 C   0  0  0  0  0  0  0  0  0  0  0  0
   -0.2575   -8.6234   16.8582 C   0  0  0  0  0  0  0  0  0  0  0  0
    4.0614   -7.0367   27.0106 N   0  0  0  0  0  0  0  0  0  0  0  0
   -2.9133  -11.6279   18.7578 C   0  0  0  0  0  0  0  0  0  0  0  0
    4.5688  -10.1291   29.5758 C   0  0  0  0  0  0  0  0  0  0  0  0
    2.1008   -9.0410   29.1852 N   0  0  0  0  0  0  0  0  0  0  0  0
    3.4829  -10.5697   30.2091 N   0  0  0  0  0  0  0  0  0  0  0  0
   -0.3363   -6.1172   27.5628 C   0  0  0  0  0  0  0  0  0  0  0  0
    3.0331   -7.4400   27.6362 C   0  0  0  0  0  0  0  0  0  0  0  0
    5.4553   -8.5933   27.9644 C   0  0  0  0  0  0  0  0  0  0  0  0
   -2.3870  -12.8440   19.2512 C   0  0  0  0  0  0  0  0  0  0  0  0
    0.5331   -7.6964   16.2751 C   0  0  0  0  0  0  0  0  0  0  0  0
   -0.6740  -10.8737   18.0482 C   0  0  0  0  0  0  0  0  0  0  0  0
    5.6751  -10.5870   29.7637 O   0  0  0  0  0  0  0  0  0  0  0  0
    1.7612   -5.6483   26.7172 C   0  0  0  0  0  0  0  0  0  0  0  0
    0.2221   -9.8326   17.4055 C   0  0  0  0  0  0  0  0  0  0  0  0
    4.3850   -9.0730   28.6745 C   0  0  0  0  0  0  0  0  0  0  0  0
  1  7  4  0
  1 22  4  0
  2 17  4  0
  2 20  4  0
  2 28  4  0
  3  6  1  0
  3 19  1  0
  4 19  1  0
  4 26  1  0
  5 17  4  0
  5 18  4  0
  6 20  1  0
  6 26  1  0
  7 24  4  0
  8 15  4  0
  8 24  4  0
  9 14  4  0
  9 21  4  0
 10 12  4  0
 10 27  4  0
 11 12  4  0
 11 23  4  0
 13 23  4  0
 13 27  4  0
 14 20  4  0
 15 22  4  0
 16 18  4  0
 16 25  2  0
 16 28  4  0
 21 28  4  0
 24 27  1  0
M  END
$$$$

 Created by Python create_sdf_string function

 28 31  0  0  0  0  0  0  0  0999 V2000
   -1.0054  -13.0622   19.1198 C   0  0  0  0  0  0  0  0  0  0  0  0
    3.1478   -8.5360   28.5161 C   0  0  0  0  0  0  0  0  0  0  0  0
    0.5798   -7.1906   27.9330 C   0  0  0  0  0  0  0  0  0  0  0  0
    0.3978   -5.1561   26.6955 C   0  0  0  0  0  0  0  0  0  0  0  0
    2.3063  -10.0533   30.0125 C   0  0  0  0  0  0  0  0  0  0  0  0
    1.8591   -6.8254   27.4685 N   0  0  0  0  0  0  0  0  0  0  0  0
   -0.2167  -12.1055   18.5568 C   0  0  0  0  0  0  0  0  0  0  0  0
   -2.0661  -10.6994   18.1916 C   0  0  0  0  0  0  0  0  0  0  0  0
    5.2703   -7.5691   27.1123 C   0  0  0  0  0  0  0  0  0  0  0  0
    1.6204   -9.9887   17.2935 C   0  0  0  0  0  0  0  0  0  0  0  0
    1.8931   -7.9265   16.2047 C   0  0  0  0  0  0  0  0  0  0  0  0
    2.4396   -9.0801   16.7132 C   0  0  0  0  0  0  0  0  0  0  0  0
   -0.2575   -8.6234   16.8582 C   0  0  0  0  0  0  0  0  0  0  0  0
    4.0614   -7.0367   27.0106 N   0  0  0  0  0  0  0  0  0  0  0  0
   -2.9133  -11.6279   18.7578 C   0  0  0  0  0  0  0  0  0  0  0  0
    4.5688  -10.1291   29.5758 C   0  0  0  0  0  0  0  0  0  0  0  0
    2.1008   -9.0410   29.1852 N   0  0  0  0  0  0  0  0  0  0  0  0
    3.4829  -10.5697   30.2091 N   0  0  0  0  0  0  0  0  0  0  0  0
   -0.3363   -6.1172   27.5628 C   0  0  0  0  0  0  0  0  0  0  0  0
    3.0331   -7.4400   27.6362 C   0  0  0  0  0  0  0  0  0  0  0  0
    5.4553   -8.5933   27.9644 C   0  0  0  0  0  0  0  0  0  0  0  0
   -2.3870  -12.8440   19.2512 C   0  0  0  0  0  0  0  0  0  0  0  0
    0.5331   -7.6964   16.2751 C   0  0  0  0  0  0  0  0  0  0  0  0
   -0.6740  -10.8737   18.0482 C   0  0  0  0  0  0  0  0  0  0  0  0
    5.6751  -10.5870   29.7637 O   0  0  0  0  0  0  0  0  0  0  0  0
    1.7612   -5.6483   26.7172 C   0  0  0  0  0  0  0  0  0  0  0  0
    0.2221   -9.8326   17.4055 C   0  0  0  0  0  0  0  0  0  0  0  0
    4.3850   -9.0730   28.6745 C   0  0  0  0  0  0  0  0  0  0  0  0
  1  7  4  0
  1 22  4  0
  2 17  4  0
  2 20  4  0
  2 28  4  0
  3  6  1  0
  3 19  1  0
  4 19  1  0
  4 26  1  0
  5 17  4  0
  5 18  4  0
  6 20  1  0
  6 26  1  0
  7 24  4  0
  8 15  4  0
  8 24  4  0
  9 14  4  0
  9 21  4  0
 10 12  4  0
 10 27  4  0
 11 12  4  0
 11 23  4  0
 13 23  4  0
 13 27  4  0
 14 20  4  0
 15 22  4  0
 16 18  4  0
 16 25  2  0
 16 28  4  0
 21 28  4  0
 24 27  1  0
M  END
$$$$

 Created by Python create_sdf_string function

 28 31  0  0  0  0  0  0  0  0999 V2000
   -1.0054  -13.0622   19.1198 C   0  0  0  0  0  0  0  0  0  0  0  0
    3.1478   -8.5360   28.5161 C   0  0  0  0  0  0  0  0  0  0  0  0
    0.5798   -7.1906   27.9330 C   0  0  0  0  0  0  0  0  0  0  0  0
    0.3978   -5.1561   26.6955 C   0  0  0  0  0  0  0  0  0  0  0  0
    2.3063  -10.0533   30.0125 C   0  0  0  0  0  0  0  0  0  0  0  0
    1.8591   -6.8254   27.4685 N   0  0  0  0  0  0  0  0  0  0  0  0
   -0.2167  -12.1055   18.5568 C   0  0  0  0  0  0  0  0  0  0  0  0
   -2.0661  -10.6994   18.1916 C   0  0  0  0  0  0  0  0  0  0  0  0
    5.2703   -7.5691   27.1123 C   0  0  0  0  0  0  0  0  0  0  0  0
    1.6204   -9.9887   17.2935 C   0  0  0  0  0  0  0  0  0  0  0  0
    1.8931   -7.9265   16.2047 C   0  0  0  0  0  0  0  0  0  0  0  0
    2.4396   -9.0801   16.7132 C   0  0  0  0  0  0  0  0  0  0  0  0
   -0.2575   -8.6234   16.8582 C   0  0  0  0  0  0  0  0  0  0  0  0
    4.0614   -7.0367   27.0106 N   0  0  0  0  0  0  0  0  0  0  0  0
   -2.9133  -11.6279   18.7578 C   0  0  0  0  0  0  0  0  0  0  0  0
    4.5688  -10.1291   29.5758 C   0  0  0  0  0  0  0  0  0  0  0  0
    2.1008   -9.0410   29.1852 N   0  0  0  0  0  0  0  0  0  0  0  0
    3.4829  -10.5697   30.2091 N   0  0  0  0  0  0  0  0  0  0  0  0
   -0.3363   -6.1172   27.5628 C   0  0  0  0  0  0  0  0  0  0  0  0
    3.0331   -7.4400   27.6362 C   0  0  0  0  0  0  0  0  0  0  0  0
    5.4553   -8.5933   27.9644 C   0  0  0  0  0  0  0  0  0  0  0  0
   -2.3870  -12.8440   19.2512 C   0  0  0  0  0  0  0  0  0  0  0  0
    0.5331   -7.6964   16.2751 C   0  0  0  0  0  0  0  0  0  0  0  0
   -0.6740  -10.8737   18.0482 C   0  0  0  0  0  0  0  0  0  0  0  0
    5.6751  -10.5870   29.7637 O   0  0  0  0  0  0  0  0  0  0  0  0
    1.7612   -5.6483   26.7172 C   0  0  0  0  0  0  0  0  0  0  0  0
    0.2221   -9.8326   17.4055 C   0  0  0  0  0  0  0  0  0  0  0  0
    4.3850   -9.0730   28.6745 C   0  0  0  0  0  0  0  0  0  0  0  0
  1  7  4  0
  1 22  4  0
  2 17  4  0
  2 20  4  0
  2 28  4  0
  3  6  1  0
  3 19  1  0
  4 19  1  0
  4 26  1  0
  5 17  4  0
  5 18  4  0
  6 20  1  0
  6 26  1  0
  7 24  4  0
  8 15  4  0
  8 24  4  0
  9 14  4  0
  9 21  4  0
 10 12  4  0
 10 27  4  0
 11 12  4  0
 11 23  4  0
 13 23  4  0
 13 27  4  0
 14 20  4  0
 15 22  4  0
 16 18  4  0
 16 25  2  0
 16 28  4  0
 21 28  4  0
 24 27  1  0
M  END
$$$$

 Created by Python create_sdf_string function

 28 31  0  0  0  0  0  0  0  0999 V2000
   -1.0054  -13.0622   19.1198 C   0  0  0  0  0  0  0  0  0  0  0  0
    3.1478   -8.5360   28.5161 C   0  0  0  0  0  0  0  0  0  0  0  0
    0.5798   -7.1906   27.9330 C   0  0  0  0  0  0  0  0  0  0  0  0
    0.3978   -5.1561   26.6955 C   0  0  0  0  0  0  0  0  0  0  0  0
    2.3063  -10.0533   30.0125 C   0  0  0  0  0  0  0  0  0  0  0  0
    1.8591   -6.8254   27.4685 N   0  0  0  0  0  0  0  0  0  0  0  0
   -0.2167  -12.1055   18.5568 C   0  0  0  0  0  0  0  0  0  0  0  0
   -2.0661  -10.6994   18.1916 C   0  0  0  0  0  0  0  0  0  0  0  0
    5.2703   -7.5691   27.1123 C   0  0  0  0  0  0  0  0  0  0  0  0
    1.6204   -9.9887   17.2935 C   0  0  0  0  0  0  0  0  0  0  0  0
    1.8931   -7.9265   16.2047 C   0  0  0  0  0  0  0  0  0  0  0  0
    2.4396   -9.0801   16.7132 C   0  0  0  0  0  0  0  0  0  0  0  0
   -0.2575   -8.6234   16.8582 C   0  0  0  0  0  0  0  0  0  0  0  0
    4.0614   -7.0367   27.0106 N   0  0  0  0  0  0  0  0  0  0  0  0
   -2.9133  -11.6279   18.7578 C   0  0  0  0  0  0  0  0  0  0  0  0
    4.5688  -10.1291   29.5758 C   0  0  0  0  0  0  0  0  0  0  0  0
    2.1008   -9.0410   29.1852 N   0  0  0  0  0  0  0  0  0  0  0  0
    3.4829  -10.5697   30.2091 N   0  0  0  0  0  0  0  0  0  0  0  0
   -0.3363   -6.1172   27.5628 C   0  0  0  0  0  0  0  0  0  0  0  0
    3.0331   -7.4400   27.6362 C   0  0  0  0  0  0  0  0  0  0  0  0
    5.4553   -8.5933   27.9644 C   0  0  0  0  0  0  0  0  0  0  0  0
   -2.3870  -12.8440   19.2512 C   0  0  0  0  0  0  0  0  0  0  0  0
    0.5331   -7.6964   16.2751 C   0  0  0  0  0  0  0  0  0  0  0  0
   -0.6740  -10.8737   18.0482 C   0  0  0  0  0  0  0  0  0  0  0  0
    5.6751  -10.5870   29.7637 O   0  0  0  0  0  0  0  0  0  0  0  0
    1.7612   -5.6483   26.7172 C   0  0  0  0  0  0  0  0  0  0  0  0
    0.2221   -9.8326   17.4055 C   0  0  0  0  0  0  0  0  0  0  0  0
    4.3850   -9.0730   28.6745 C   0  0  0  0  0  0  0  0  0  0  0  0
  1  7  4  0
  1 22  4  0
  2 17  4  0
  2 20  4  0
  2 28  4  0
  3  6  1  0
  3 19  1  0
  4 19  1  0
  4 26  1  0
  5 17  4  0
  5 18  4  0
  6 20  1  0
  6 26  1  0
  7 24  4  0
  8 15  4  0
  8 24  4  0
  9 14  4  0
  9 21  4  0
 10 12  4  0
 10 27  4  0
 11 12  4  0
 11 23  4  0
 13 23  4  0
 13 27  4  0
 14 20  4  0
 15 22  4  0
 16 18  4  0
 16 25  2  0
 16 28  4  0
 21 28  4  0
 24 27  1  0
M  END
$$$$

 Created by Python create_sdf_string function

 28 31  0  0  0  0  0  0  0  0999 V2000
   -1.0054  -13.0622   19.1198 C   0  0  0  0  0  0  0  0  0  0  0  0
    3.1478   -8.5360   28.5161 C   0  0  0  0  0  0  0  0  0  0  0  0
    0.5798   -7.1906   27.9330 C   0  0  0  0  0  0  0  0  0  0  0  0
    0.3978   -5.1561   26.6955 C   0  0  0  0  0  0  0  0  0  0  0  0
    2.3063  -10.0533   30.0125 C   0  0  0  0  0  0  0  0  0  0  0  0
    1.8591   -6.8254   27.4685 N   0  0  0  0  0  0  0  0  0  0  0  0
   -0.2167  -12.1055   18.5568 C   0  0  0  0  0  0  0  0  0  0  0  0
   -2.0661  -10.6994   18.1916 C   0  0  0  0  0  0  0  0  0  0  0  0
    5.2703   -7.5691   27.1123 C   0  0  0  0  0  0  0  0  0  0  0  0
    1.6204   -9.9887   17.2935 C   0  0  0  0  0  0  0  0  0  0  0  0
    1.8931   -7.9265   16.2047 C   0  0  0  0  0  0  0  0  0  0  0  0
    2.4396   -9.0801   16.7132 C   0  0  0  0  0  0  0  0  0  0  0  0
   -0.2575   -8.6234   16.8582 C   0  0  0  0  0  0  0  0  0  0  0  0
    4.0614   -7.0367   27.0106 N   0  0  0  0  0  0  0  0  0  0  0  0
   -2.9133  -11.6279   18.7578 C   0  0  0  0  0  0  0  0  0  0  0  0
    4.5688  -10.1291   29.5758 C   0  0  0  0  0  0  0  0  0  0  0  0
    2.1008   -9.0410   29.1852 N   0  0  0  0  0  0  0  0  0  0  0  0
    3.4829  -10.5697   30.2091 N   0  0  0  0  0  0  0  0  0  0  0  0
   -0.3363   -6.1172   27.5628 C   0  0  0  0  0  0  0  0  0  0  0  0
    3.0331   -7.4400   27.6362 C   0  0  0  0  0  0  0  0  0  0  0  0
    5.4553   -8.5933   27.9644 C   0  0  0  0  0  0  0  0  0  0  0  0
   -2.3870  -12.8440   19.2512 C   0  0  0  0  0  0  0  0  0  0  0  0
    0.5331   -7.6964   16.2751 C   0  0  0  0  0  0  0  0  0  0  0  0
   -0.6740  -10.8737   18.0482 C   0  0  0  0  0  0  0  0  0  0  0  0
    5.6751  -10.5870   29.7637 O   0  0  0  0  0  0  0  0  0  0  0  0
    1.7612   -5.6483   26.7172 C   0  0  0  0  0  0  0  0  0  0  0  0
    0.2221   -9.8326   17.4055 C   0  0  0  0  0  0  0  0  0  0  0  0
    4.3850   -9.0730   28.6745 C   0  0  0  0  0  0  0  0  0  0  0  0
  1  7  4  0
  1 22  4  0
  2 17  4  0
  2 20  4  0
  2 28  4  0
  3  6  1  0
  3 19  1  0
  4 19  1  0
  4 26  1  0
  5 17  4  0
  5 18  4  0
  6 20  1  0
  6 26  1  0
  7 24  4  0
  8 15  4  0
  8 24  4  0
  9 14  4  0
  9 21  4  0
 10 12  4  0
 10 27  4  0
 11 12  4  0
 11 23  4  0
 13 23  4  0
 13 27  4  0
 14 20  4  0
 15 22  4  0
 16 18  4  0
 16 25  2  0
 16 28  4  0
 21 28  4  0
 24 27  1  0
M  END
$$$$

 Created by Python create_sdf_string function

 28 31  0  0  0  0  0  0  0  0999 V2000
   -1.0054  -13.0622   19.1198 C   0  0  0  0  0  0  0  0  0  0  0  0
    3.1478   -8.5360   28.5161 C   0  0  0  0  0  0  0  0  0  0  0  0
    0.5798   -7.1906   27.9330 C   0  0  0  0  0  0  0  0  0  0  0  0
    0.3978   -5.1561   26.6955 C   0  0  0  0  0  0  0  0  0  0  0  0
    2.3063  -10.0533   30.0125 C   0  0  0  0  0  0  0  0  0  0  0  0
    1.8591   -6.8254   27.4685 N   0  0  0  0  0  0  0  0  0  0  0  0
   -0.2167  -12.1055   18.5568 C   0  0  0  0  0  0  0  0  0  0  0  0
   -2.0661  -10.6994   18.1916 C   0  0  0  0  0  0  0  0  0  0  0  0
    5.2703   -7.5691   27.1123 C   0  0  0  0  0  0  0  0  0  0  0  0
    1.6204   -9.9887   17.2935 C   0  0  0  0  0  0  0  0  0  0  0  0
    1.8931   -7.9265   16.2047 C   0  0  0  0  0  0  0  0  0  0  0  0
    2.4396   -9.0801   16.7132 C   0  0  0  0  0  0  0  0  0  0  0  0
   -0.2575   -8.6234   16.8582 C   0  0  0  0  0  0  0  0  0  0  0  0
    4.0614   -7.0367   27.0106 N   0  0  0  0  0  0  0  0  0  0  0  0
   -2.9133  -11.6279   18.7578 C   0  0  0  0  0  0  0  0  0  0  0  0
    4.5688  -10.1291   29.5758 C   0  0  0  0  0  0  0  0  0  0  0  0
    2.1008   -9.0410   29.1852 N   0  0  0  0  0  0  0  0  0  0  0  0
    3.4829  -10.5697   30.2091 N   0  0  0  0  0  0  0  0  0  0  0  0
   -0.3363   -6.1172   27.5628 C   0  0  0  0  0  0  0  0  0  0  0  0
    3.0331   -7.4400   27.6362 C   0  0  0  0  0  0  0  0  0  0  0  0
    5.4553   -8.5933   27.9644 C   0  0  0  0  0  0  0  0  0  0  0  0
   -2.3870  -12.8440   19.2512 C   0  0  0  0  0  0  0  0  0  0  0  0
    0.5331   -7.6964   16.2751 C   0  0  0  0  0  0  0  0  0  0  0  0
   -0.6740  -10.8737   18.0482 C   0  0  0  0  0  0  0  0  0  0  0  0
    5.6751  -10.5870   29.7637 O   0  0  0  0  0  0  0  0  0  0  0  0
    1.7612   -5.6483   26.7172 C   0  0  0  0  0  0  0  0  0  0  0  0
    0.2221   -9.8326   17.4055 C   0  0  0  0  0  0  0  0  0  0  0  0
    4.3850   -9.0730   28.6745 C   0  0  0  0  0  0  0  0  0  0  0  0
  1  7  4  0
  1 22  4  0
  2 17  4  0
  2 20  4  0
  2 28  4  0
  3  6  1  0
  3 19  1  0
  4 19  1  0
  4 26  1  0
  5 17  4  0
  5 18  4  0
  6 20  1  0
  6 26  1  0
  7 24  4  0
  8 15  4  0
  8 24  4  0
  9 14  4  0
  9 21  4  0
 10 12  4  0
 10 27  4  0
 11 12  4  0
 11 23  4  0
 13 23  4  0
 13 27  4  0
 14 20  4  0
 15 22  4  0
 16 18  4  0
 16 25  2  0
 16 28  4  0
 21 28  4  0
 24 27  1  0
M  END
$$$$

 Created by Python create_sdf_string function

 28 31  0  0  0  0  0  0  0  0999 V2000
   -1.0054  -13.0622   19.1198 C   0  0  0  0  0  0  0  0  0  0  0  0
    3.1478   -8.5360   28.5161 C   0  0  0  0  0  0  0  0  0  0  0  0
    0.5798   -7.1906   27.9330 C   0  0  0  0  0  0  0  0  0  0  0  0
    0.3978   -5.1561   26.6955 C   0  0  0  0  0  0  0  0  0  0  0  0
    2.3063  -10.0533   30.0125 C   0  0  0  0  0  0  0  0  0  0  0  0
    1.8591   -6.8254   27.4685 N   0  0  0  0  0  0  0  0  0  0  0  0
   -0.2167  -12.1055   18.5568 C   0  0  0  0  0  0  0  0  0  0  0  0
   -2.0661  -10.6994   18.1916 C   0  0  0  0  0  0  0  0  0  0  0  0
    5.2703   -7.5691   27.1123 C   0  0  0  0  0  0  0  0  0  0  0  0
    1.6204   -9.9887   17.2935 C   0  0  0  0  0  0  0  0  0  0  0  0
    1.8931   -7.9265   16.2047 C   0  0  0  0  0  0  0  0  0  0  0  0
    2.4396   -9.0801   16.7132 C   0  0  0  0  0  0  0  0  0  0  0  0
   -0.2575   -8.6234   16.8582 C   0  0  0  0  0  0  0  0  0  0  0  0
    4.0614   -7.0367   27.0106 N   0  0  0  0  0  0  0  0  0  0  0  0
   -2.9133  -11.6279   18.7578 C   0  0  0  0  0  0  0  0  0  0  0  0
    4.5688  -10.1291   29.5758 C   0  0  0  0  0  0  0  0  0  0  0  0
    2.1008   -9.0410   29.1852 N   0  0  0  0  0  0  0  0  0  0  0  0
    3.4829  -10.5697   30.2091 N   0  0  0  0  0  0  0  0  0  0  0  0
   -0.3363   -6.1172   27.5628 C   0  0  0  0  0  0  0  0  0  0  0  0
    3.0331   -7.4400   27.6362 C   0  0  0  0  0  0  0  0  0  0  0  0
    5.4553   -8.5933   27.9644 C   0  0  0  0  0  0  0  0  0  0  0  0
   -2.3870  -12.8440   19.2512 C   0  0  0  0  0  0  0  0  0  0  0  0
    0.5331   -7.6964   16.2751 C   0  0  0  0  0  0  0  0  0  0  0  0
   -0.6740  -10.8737   18.0482 C   0  0  0  0  0  0  0  0  0  0  0  0
    5.6751  -10.5870   29.7637 O   0  0  0  0  0  0  0  0  0  0  0  0
    1.7612   -5.6483   26.7172 C   0  0  0  0  0  0  0  0  0  0  0  0
    0.2221   -9.8326   17.4055 C   0  0  0  0  0  0  0  0  0  0  0  0
    4.3850   -9.0730   28.6745 C   0  0  0  0  0  0  0  0  0  0  0  0
  1  7  4  0
  1 22  4  0
  2 17  4  0
  2 20  4  0
  2 28  4  0
  3  6  1  0
  3 19  1  0
  4 19  1  0
  4 26  1  0
  5 17  4  0
  5 18  4  0
  6 20  1  0
  6 26  1  0
  7 24  4  0
  8 15  4  0
  8 24  4  0
  9 14  4  0
  9 21  4  0
 10 12  4  0
 10 27  4  0
 11 12  4  0
 11 23  4  0
 13 23  4  0
 13 27  4  0
 14 20  4  0
 15 22  4  0
 16 18  4  0
 16 25  2  0
 16 28  4  0
 21 28  4  0
 24 27  1  0
M  END
$$$$

 Created by Python create_sdf_string function

 28 31  0  0  0  0  0  0  0  0999 V2000
   -1.0054  -13.0622   19.1198 C   0  0  0  0  0  0  0  0  0  0  0  0
    3.1478   -8.5360   28.5161 C   0  0  0  0  0  0  0  0  0  0  0  0
    0.5798   -7.1906   27.9330 C   0  0  0  0  0  0  0  0  0  0  0  0
    0.3978   -5.1561   26.6955 C   0  0  0  0  0  0  0  0  0  0  0  0
    2.3063  -10.0533   30.0125 C   0  0  0  0  0  0  0  0  0  0  0  0
    1.8591   -6.8254   27.4685 N   0  0  0  0  0  0  0  0  0  0  0  0
   -0.2167  -12.1055   18.5568 C   0  0  0  0  0  0  0  0  0  0  0  0
   -2.0661  -10.6994   18.1916 C   0  0  0  0  0  0  0  0  0  0  0  0
    5.2703   -7.5691   27.1123 C   0  0  0  0  0  0  0  0  0  0  0  0
    1.6204   -9.9887   17.2935 C   0  0  0  0  0  0  0  0  0  0  0  0
    1.8931   -7.9265   16.2047 C   0  0  0  0  0  0  0  0  0  0  0  0
    2.4396   -9.0801   16.7132 C   0  0  0  0  0  0  0  0  0  0  0  0
   -0.2575   -8.6234   16.8582 C   0  0  0  0  0  0  0  0  0  0  0  0
    4.0614   -7.0367   27.0106 N   0  0  0  0  0  0  0  0  0  0  0  0
   -2.9133  -11.6279   18.7578 C   0  0  0  0  0  0  0  0  0  0  0  0
    4.5688  -10.1291   29.5758 C   0  0  0  0  0  0  0  0  0  0  0  0
    2.1008   -9.0410   29.1852 N   0  0  0  0  0  0  0  0  0  0  0  0
    3.4829  -10.5697   30.2091 N   0  0  0  0  0  0  0  0  0  0  0  0
   -0.3363   -6.1172   27.5628 C   0  0  0  0  0  0  0  0  0  0  0  0
    3.0331   -7.4400   27.6362 C   0  0  0  0  0  0  0  0  0  0  0  0
    5.4553   -8.5933   27.9644 C   0  0  0  0  0  0  0  0  0  0  0  0
   -2.3870  -12.8440   19.2512 C   0  0  0  0  0  0  0  0  0  0  0  0
    0.5331   -7.6964   16.2751 C   0  0  0  0  0  0  0  0  0  0  0  0
   -0.6740  -10.8737   18.0482 C   0  0  0  0  0  0  0  0  0  0  0  0
    5.6751  -10.5870   29.7637 O   0  0  0  0  0  0  0  0  0  0  0  0
    1.7612   -5.6483   26.7172 C   0  0  0  0  0  0  0  0  0  0  0  0
    0.2221   -9.8326   17.4055 C   0  0  0  0  0  0  0  0  0  0  0  0
    4.3850   -9.0730   28.6745 C   0  0  0  0  0  0  0  0  0  0  0  0
  1  7  4  0
  1 22  4  0
  2 17  4  0
  2 20  4  0
  2 28  4  0
  3  6  1  0
  3 19  1  0
  4 19  1  0
  4 26  1  0
  5 17  4  0
  5 18  4  0
  6 20  1  0
  6 26  1  0
  7 24  4  0
  8 15  4  0
  8 24  4  0
  9 14  4  0
  9 21  4  0
 10 12  4  0
 10 27  4  0
 11 12  4  0
 11 23  4  0
 13 23  4  0
 13 27  4  0
 14 20  4  0
 15 22  4  0
 16 18  4  0
 16 25  2  0
 16 28  4  0
 21 28  4  0
 24 27  1  0
M  END
$$$$

 Created by Python create_sdf_string function

 28 31  0  0  0  0  0  0  0  0999 V2000
   -1.0054  -13.0622   19.1198 C   0  0  0  0  0  0  0  0  0  0  0  0
    3.1478   -8.5360   28.5161 C   0  0  0  0  0  0  0  0  0  0  0  0
    0.5798   -7.1906   27.9330 C   0  0  0  0  0  0  0  0  0  0  0  0
    0.3978   -5.1561   26.6955 C   0  0  0  0  0  0  0  0  0  0  0  0
    2.3063  -10.0533   30.0125 C   0  0  0  0  0  0  0  0  0  0  0  0
    1.8591   -6.8254   27.4685 N   0  0  0  0  0  0  0  0  0  0  0  0
   -0.2167  -12.1055   18.5568 C   0  0  0  0  0  0  0  0  0  0  0  0
   -2.0661  -10.6994   18.1916 C   0  0  0  0  0  0  0  0  0  0  0  0
    5.2703   -7.5691   27.1123 C   0  0  0  0  0  0  0  0  0  0  0  0
    1.6204   -9.9887   17.2935 C   0  0  0  0  0  0  0  0  0  0  0  0
    1.8931   -7.9265   16.2047 C   0  0  0  0  0  0  0  0  0  0  0  0
    2.4396   -9.0801   16.7132 C   0  0  0  0  0  0  0  0  0  0  0  0
   -0.2575   -8.6234   16.8582 C   0  0  0  0  0  0  0  0  0  0  0  0
    4.0614   -7.0367   27.0106 N   0  0  0  0  0  0  0  0  0  0  0  0
   -2.9133  -11.6279   18.7578 C   0  0  0  0  0  0  0  0  0  0  0  0
    4.5688  -10.1291   29.5758 C   0  0  0  0  0  0  0  0  0  0  0  0
    2.1008   -9.0410   29.1852 N   0  0  0  0  0  0  0  0  0  0  0  0
    3.4829  -10.5697   30.2091 N   0  0  0  0  0  0  0  0  0  0  0  0
   -0.3363   -6.1172   27.5628 C   0  0  0  0  0  0  0  0  0  0  0  0
    3.0331   -7.4400   27.6362 C   0  0  0  0  0  0  0  0  0  0  0  0
    5.4553   -8.5933   27.9644 C   0  0  0  0  0  0  0  0  0  0  0  0
   -2.3870  -12.8440   19.2512 C   0  0  0  0  0  0  0  0  0  0  0  0
    0.5331   -7.6964   16.2751 C   0  0  0  0  0  0  0  0  0  0  0  0
   -0.6740  -10.8737   18.0482 C   0  0  0  0  0  0  0  0  0  0  0  0
    5.6751  -10.5870   29.7637 O   0  0  0  0  0  0  0  0  0  0  0  0
    1.7612   -5.6483   26.7172 C   0  0  0  0  0  0  0  0  0  0  0  0
    0.2221   -9.8326   17.4055 C   0  0  0  0  0  0  0  0  0  0  0  0
    4.3850   -9.0730   28.6745 C   0  0  0  0  0  0  0  0  0  0  0  0
  1  7  4  0
  1 22  4  0
  2 17  4  0
  2 20  4  0
  2 28  4  0
  3  6  1  0
  3 19  1  0
  4 19  1  0
  4 26  1  0
  5 17  4  0
  5 18  4  0
  6 20  1  0
  6 26  1  0
  7 24  4  0
  8 15  4  0
  8 24  4  0
  9 14  4  0
  9 21  4  0
 10 12  4  0
 10 27  4  0
 11 12  4  0
 11 23  4  0
 13 23  4  0
 13 27  4  0
 14 20  4  0
 15 22  4  0
 16 18  4  0
 16 25  2  0
 16 28  4  0
 21 28  4  0
 24 27  1  0
M  END
$$$$

 Created by Python create_sdf_string function

 28 31  0  0  0  0  0  0  0  0999 V2000
   -1.0054  -13.0622   19.1198 C   0  0  0  0  0  0  0  0  0  0  0  0
    3.1478   -8.5360   28.5161 C   0  0  0  0  0  0  0  0  0  0  0  0
    0.5798   -7.1906   27.9330 C   0  0  0  0  0  0  0  0  0  0  0  0
    0.3978   -5.1561   26.6955 C   0  0  0  0  0  0  0  0  0  0  0  0
    2.3063  -10.0533   30.0125 C   0  0  0  0  0  0  0  0  0  0  0  0
    1.8591   -6.8254   27.4685 N   0  0  0  0  0  0  0  0  0  0  0  0
   -0.2167  -12.1055   18.5568 C   0  0  0  0  0  0  0  0  0  0  0  0
   -2.0661  -10.6994   18.1916 C   0  0  0  0  0  0  0  0  0  0  0  0
    5.2703   -7.5691   27.1123 C   0  0  0  0  0  0  0  0  0  0  0  0
    1.6204   -9.9887   17.2935 C   0  0  0  0  0  0  0  0  0  0  0  0
    1.8931   -7.9265   16.2047 C   0  0  0  0  0  0  0  0  0  0  0  0
    2.4396   -9.0801   16.7132 C   0  0  0  0  0  0  0  0  0  0  0  0
   -0.2575   -8.6234   16.8582 C   0  0  0  0  0  0  0  0  0  0  0  0
    4.0614   -7.0367   27.0106 N   0  0  0  0  0  0  0  0  0  0  0  0
   -2.9133  -11.6279   18.7578 C   0  0  0  0  0  0  0  0  0  0  0  0
    4.5688  -10.1291   29.5758 C   0  0  0  0  0  0  0  0  0  0  0  0
    2.1008   -9.0410   29.1852 N   0  0  0  0  0  0  0  0  0  0  0  0
    3.4829  -10.5697   30.2091 N   0  0  0  0  0  0  0  0  0  0  0  0
   -0.3363   -6.1172   27.5628 C   0  0  0  0  0  0  0  0  0  0  0  0
    3.0331   -7.4400   27.6362 C   0  0  0  0  0  0  0  0  0  0  0  0
    5.4553   -8.5933   27.9644 C   0  0  0  0  0  0  0  0  0  0  0  0
   -2.3870  -12.8440   19.2512 C   0  0  0  0  0  0  0  0  0  0  0  0
    0.5331   -7.6964   16.2751 C   0  0  0  0  0  0  0  0  0  0  0  0
   -0.6740  -10.8737   18.0482 C   0  0  0  0  0  0  0  0  0  0  0  0
    5.6751  -10.5870   29.7637 O   0  0  0  0  0  0  0  0  0  0  0  0
    1.7612   -5.6483   26.7172 C   0  0  0  0  0  0  0  0  0  0  0  0
    0.2221   -9.8326   17.4055 C   0  0  0  0  0  0  0  0  0  0  0  0
    4.3850   -9.0730   28.6745 C   0  0  0  0  0  0  0  0  0  0  0  0
  1  7  4  0
  1 22  4  0
  2 17  4  0
  2 20  4  0
  2 28  4  0
  3  6  1  0
  3 19  1  0
  4 19  1  0
  4 26  1  0
  5 17  4  0
  5 18  4  0
  6 20  1  0
  6 26  1  0
  7 24  4  0
  8 15  4  0
  8 24  4  0
  9 14  4  0
  9 21  4  0
 10 12  4  0
 10 27  4  0
 11 12  4  0
 11 23  4  0
 13 23  4  0
 13 27  4  0
 14 20  4  0
 15 22  4  0
 16 18  4  0
 16 25  2  0
 16 28  4  0
 21 28  4  0
 24 27  1  0
M  END
$$$$

 Created by Python create_sdf_string function

 28 31  0  0  0  0  0  0  0  0999 V2000
   -1.0054  -13.0622   19.1198 C   0  0  0  0  0  0  0  0  0  0  0  0
    3.1478   -8.5360   28.5161 C   0  0  0  0  0  0  0  0  0  0  0  0
    0.5798   -7.1906   27.9330 C   0  0  0  0  0  0  0  0  0  0  0  0
    0.3978   -5.1561   26.6955 C   0  0  0  0  0  0  0  0  0  0  0  0
    2.3063  -10.0533   30.0125 C   0  0  0  0  0  0  0  0  0  0  0  0
    1.8591   -6.8254   27.4685 N   0  0  0  0  0  0  0  0  0  0  0  0
   -0.2167  -12.1055   18.5568 C   0  0  0  0  0  0  0  0  0  0  0  0
   -2.0661  -10.6994   18.1916 C   0  0  0  0  0  0  0  0  0  0  0  0
    5.2703   -7.5691   27.1123 C   0  0  0  0  0  0  0  0  0  0  0  0
    1.6204   -9.9887   17.2935 C   0  0  0  0  0  0  0  0  0  0  0  0
    1.8931   -7.9265   16.2047 C   0  0  0  0  0  0  0  0  0  0  0  0
    2.4396   -9.0801   16.7132 C   0  0  0  0  0  0  0  0  0  0  0  0
   -0.2575   -8.6234   16.8582 C   0  0  0  0  0  0  0  0  0  0  0  0
    4.0614   -7.0367   27.0106 N   0  0  0  0  0  0  0  0  0  0  0  0
   -2.9133  -11.6279   18.7578 C   0  0  0  0  0  0  0  0  0  0  0  0
    4.5688  -10.1291   29.5758 C   0  0  0  0  0  0  0  0  0  0  0  0
    2.1008   -9.0410   29.1852 N   0  0  0  0  0  0  0  0  0  0  0  0
    3.4829  -10.5697   30.2091 N   0  0  0  0  0  0  0  0  0  0  0  0
   -0.3363   -6.1172   27.5628 C   0  0  0  0  0  0  0  0  0  0  0  0
    3.0331   -7.4400   27.6362 C   0  0  0  0  0  0  0  0  0  0  0  0
    5.4553   -8.5933   27.9644 C   0  0  0  0  0  0  0  0  0  0  0  0
   -2.3870  -12.8440   19.2512 C   0  0  0  0  0  0  0  0  0  0  0  0
    0.5331   -7.6964   16.2751 C   0  0  0  0  0  0  0  0  0  0  0  0
   -0.6740  -10.8737   18.0482 C   0  0  0  0  0  0  0  0  0  0  0  0
    5.6751  -10.5870   29.7637 O   0  0  0  0  0  0  0  0  0  0  0  0
    1.7612   -5.6483   26.7172 C   0  0  0  0  0  0  0  0  0  0  0  0
    0.2221   -9.8326   17.4055 C   0  0  0  0  0  0  0  0  0  0  0  0
    4.3850   -9.0730   28.6745 C   0  0  0  0  0  0  0  0  0  0  0  0
  1  7  4  0
  1 22  4  0
  2 17  4  0
  2 20  4  0
  2 28  4  0
  3  6  1  0
  3 19  1  0
  4 19  1  0
  4 26  1  0
  5 17  4  0
  5 18  4  0
  6 20  1  0
  6 26  1  0
  7 24  4  0
  8 15  4  0
  8 24  4  0
  9 14  4  0
  9 21  4  0
 10 12  4  0
 10 27  4  0
 11 12  4  0
 11 23  4  0
 13 23  4  0
 13 27  4  0
 14 20  4  0
 15 22  4  0
 16 18  4  0
 16 25  2  0
 16 28  4  0
 21 28  4  0
 24 27  1  0
M  END
$$$$

 Created by Python create_sdf_string function

 28 31  0  0  0  0  0  0  0  0999 V2000
   -1.0054  -13.0622   19.1198 C   0  0  0  0  0  0  0  0  0  0  0  0
    3.1478   -8.5360   28.5161 C   0  0  0  0  0  0  0  0  0  0  0  0
    0.5798   -7.1906   27.9330 C   0  0  0  0  0  0  0  0  0  0  0  0
    0.3978   -5.1561   26.6955 C   0  0  0  0  0  0  0  0  0  0  0  0
    2.3063  -10.0533   30.0125 C   0  0  0  0  0  0  0  0  0  0  0  0
    1.8591   -6.8254   27.4685 N   0  0  0  0  0  0  0  0  0  0  0  0
   -0.2167  -12.1055   18.5568 C   0  0  0  0  0  0  0  0  0  0  0  0
   -2.0661  -10.6994   18.1916 C   0  0  0  0  0  0  0  0  0  0  0  0
    5.2703   -7.5691   27.1123 C   0  0  0  0  0  0  0  0  0  0  0  0
    1.6204   -9.9887   17.2935 C   0  0  0  0  0  0  0  0  0  0  0  0
    1.8931   -7.9265   16.2047 C   0  0  0  0  0  0  0  0  0  0  0  0
    2.4396   -9.0801   16.7132 C   0  0  0  0  0  0  0  0  0  0  0  0
   -0.2575   -8.6234   16.8582 C   0  0  0  0  0  0  0  0  0  0  0  0
    4.0614   -7.0367   27.0106 N   0  0  0  0  0  0  0  0  0  0  0  0
   -2.9133  -11.6279   18.7578 C   0  0  0  0  0  0  0  0  0  0  0  0
    4.5688  -10.1291   29.5758 C   0  0  0  0  0  0  0  0  0  0  0  0
    2.1008   -9.0410   29.1852 N   0  0  0  0  0  0  0  0  0  0  0  0
    3.4829  -10.5697   30.2091 N   0  0  0  0  0  0  0  0  0  0  0  0
   -0.3363   -6.1172   27.5628 C   0  0  0  0  0  0  0  0  0  0  0  0
    3.0331   -7.4400   27.6362 C   0  0  0  0  0  0  0  0  0  0  0  0
    5.4553   -8.5933   27.9644 C   0  0  0  0  0  0  0  0  0  0  0  0
   -2.3870  -12.8440   19.2512 C   0  0  0  0  0  0  0  0  0  0  0  0
    0.5331   -7.6964   16.2751 C   0  0  0  0  0  0  0  0  0  0  0  0
   -0.6740  -10.8737   18.0482 C   0  0  0  0  0  0  0  0  0  0  0  0
    5.6751  -10.5870   29.7637 O   0  0  0  0  0  0  0  0  0  0  0  0
    1.7612   -5.6483   26.7172 C   0  0  0  0  0  0  0  0  0  0  0  0
    0.2221   -9.8326   17.4055 C   0  0  0  0  0  0  0  0  0  0  0  0
    4.3850   -9.0730   28.6745 C   0  0  0  0  0  0  0  0  0  0  0  0
  1  7  4  0
  1 22  4  0
  2 17  4  0
  2 20  4  0
  2 28  4  0
  3  6  1  0
  3 19  1  0
  4 19  1  0
  4 26  1  0
  5 17  4  0
  5 18  4  0
  6 20  1  0
  6 26  1  0
  7 24  4  0
  8 15  4  0
  8 24  4  0
  9 14  4  0
  9 21  4  0
 10 12  4  0
 10 27  4  0
 11 12  4  0
 11 23  4  0
 13 23  4  0
 13 27  4  0
 14 20  4  0
 15 22  4  0
 16 18  4  0
 16 25  2  0
 16 28  4  0
 21 28  4  0
 24 27  1  0
M  END
$$$$

 Created by Python create_sdf_string function

 28 31  0  0  0  0  0  0  0  0999 V2000
   -1.0054  -13.0622   19.1198 C   0  0  0  0  0  0  0  0  0  0  0  0
    3.1478   -8.5360   28.5161 C   0  0  0  0  0  0  0  0  0  0  0  0
    0.5798   -7.1906   27.9330 C   0  0  0  0  0  0  0  0  0  0  0  0
    0.3978   -5.1561   26.6955 C   0  0  0  0  0  0  0  0  0  0  0  0
    2.3063  -10.0533   30.0125 C   0  0  0  0  0  0  0  0  0  0  0  0
    1.8591   -6.8254   27.4685 N   0  0  0  0  0  0  0  0  0  0  0  0
   -0.2167  -12.1055   18.5568 C   0  0  0  0  0  0  0  0  0  0  0  0
   -2.0661  -10.6994   18.1916 C   0  0  0  0  0  0  0  0  0  0  0  0
    5.2703   -7.5691   27.1123 C   0  0  0  0  0  0  0  0  0  0  0  0
    1.6204   -9.9887   17.2935 C   0  0  0  0  0  0  0  0  0  0  0  0
    1.8931   -7.9265   16.2047 C   0  0  0  0  0  0  0  0  0  0  0  0
    2.4396   -9.0801   16.7132 C   0  0  0  0  0  0  0  0  0  0  0  0
   -0.2575   -8.6234   16.8582 C   0  0  0  0  0  0  0  0  0  0  0  0
    4.0614   -7.0367   27.0106 N   0  0  0  0  0  0  0  0  0  0  0  0
   -2.9133  -11.6279   18.7578 C   0  0  0  0  0  0  0  0  0  0  0  0
    4.5688  -10.1291   29.5758 C   0  0  0  0  0  0  0  0  0  0  0  0
    2.1008   -9.0410   29.1852 N   0  0  0  0  0  0  0  0  0  0  0  0
    3.4829  -10.5697   30.2091 N   0  0  0  0  0  0  0  0  0  0  0  0
   -0.3363   -6.1172   27.5628 C   0  0  0  0  0  0  0  0  0  0  0  0
    3.0331   -7.4400   27.6362 C   0  0  0  0  0  0  0  0  0  0  0  0
    5.4553   -8.5933   27.9644 C   0  0  0  0  0  0  0  0  0  0  0  0
   -2.3870  -12.8440   19.2512 C   0  0  0  0  0  0  0  0  0  0  0  0
    0.5331   -7.6964   16.2751 C   0  0  0  0  0  0  0  0  0  0  0  0
   -0.6740  -10.8737   18.0482 C   0  0  0  0  0  0  0  0  0  0  0  0
    5.6751  -10.5870   29.7637 O   0  0  0  0  0  0  0  0  0  0  0  0
    1.7612   -5.6483   26.7172 C   0  0  0  0  0  0  0  0  0  0  0  0
    0.2221   -9.8326   17.4055 C   0  0  0  0  0  0  0  0  0  0  0  0
    4.3850   -9.0730   28.6745 C   0  0  0  0  0  0  0  0  0  0  0  0
  1  7  4  0
  1 22  4  0
  2 17  4  0
  2 20  4  0
  2 28  4  0
  3  6  1  0
  3 19  1  0
  4 19  1  0
  4 26  1  0
  5 17  4  0
  5 18  4  0
  6 20  1  0
  6 26  1  0
  7 24  4  0
  8 15  4  0
  8 24  4  0
  9 14  4  0
  9 21  4  0
 10 12  4  0
 10 27  4  0
 11 12  4  0
 11 23  4  0
 13 23  4  0
 13 27  4  0
 14 20  4  0
 15 22  4  0
 16 18  4  0
 16 25  2  0
 16 28  4  0
 21 28  4  0
 24 27  1  0
M  END
$$$$

 Created by Python create_sdf_string function

 28 31  0  0  0  0  0  0  0  0999 V2000
   -1.0054  -13.0622   19.1198 C   0  0  0  0  0  0  0  0  0  0  0  0
    3.1478   -8.5360   28.5161 C   0  0  0  0  0  0  0  0  0  0  0  0
    0.5798   -7.1906   27.9330 C   0  0  0  0  0  0  0  0  0  0  0  0
    0.3978   -5.1561   26.6955 C   0  0  0  0  0  0  0  0  0  0  0  0
    2.3063  -10.0533   30.0125 C   0  0  0  0  0  0  0  0  0  0  0  0
    1.8591   -6.8254   27.4685 N   0  0  0  0  0  0  0  0  0  0  0  0
   -0.2167  -12.1055   18.5568 C   0  0  0  0  0  0  0  0  0  0  0  0
   -2.0661  -10.6994   18.1916 C   0  0  0  0  0  0  0  0  0  0  0  0
    5.2703   -7.5691   27.1123 C   0  0  0  0  0  0  0  0  0  0  0  0
    1.6204   -9.9887   17.2935 C   0  0  0  0  0  0  0  0  0  0  0  0
    1.8931   -7.9265   16.2047 C   0  0  0  0  0  0  0  0  0  0  0  0
    2.4396   -9.0801   16.7132 C   0  0  0  0  0  0  0  0  0  0  0  0
   -0.2575   -8.6234   16.8582 C   0  0  0  0  0  0  0  0  0  0  0  0
    4.0614   -7.0367   27.0106 N   0  0  0  0  0  0  0  0  0  0  0  0
   -2.9133  -11.6279   18.7578 C   0  0  0  0  0  0  0  0  0  0  0  0
    4.5688  -10.1291   29.5758 C   0  0  0  0  0  0  0  0  0  0  0  0
    2.1008   -9.0410   29.1852 N   0  0  0  0  0  0  0  0  0  0  0  0
    3.4829  -10.5697   30.2091 N   0  0  0  0  0  0  0  0  0  0  0  0
   -0.3363   -6.1172   27.5628 C   0  0  0  0  0  0  0  0  0  0  0  0
    3.0331   -7.4400   27.6362 C   0  0  0  0  0  0  0  0  0  0  0  0
    5.4553   -8.5933   27.9644 C   0  0  0  0  0  0  0  0  0  0  0  0
   -2.3870  -12.8440   19.2512 C   0  0  0  0  0  0  0  0  0  0  0  0
    0.5331   -7.6964   16.2751 C   0  0  0  0  0  0  0  0  0  0  0  0
   -0.6740  -10.8737   18.0482 C   0  0  0  0  0  0  0  0  0  0  0  0
    5.6751  -10.5870   29.7637 O   0  0  0  0  0  0  0  0  0  0  0  0
    1.7612   -5.6483   26.7172 C   0  0  0  0  0  0  0  0  0  0  0  0
    0.2221   -9.8326   17.4055 C   0  0  0  0  0  0  0  0  0  0  0  0
    4.3850   -9.0730   28.6745 C   0  0  0  0  0  0  0  0  0  0  0  0
  1  7  4  0
  1 22  4  0
  2 17  4  0
  2 20  4  0
  2 28  4  0
  3  6  1  0
  3 19  1  0
  4 19  1  0
  4 26  1  0
  5 17  4  0
  5 18  4  0
  6 20  1  0
  6 26  1  0
  7 24  4  0
  8 15  4  0
  8 24  4  0
  9 14  4  0
  9 21  4  0
 10 12  4  0
 10 27  4  0
 11 12  4  0
 11 23  4  0
 13 23  4  0
 13 27  4  0
 14 20  4  0
 15 22  4  0
 16 18  4  0
 16 25  2  0
 16 28  4  0
 21 28  4  0
 24 27  1  0
M  END
$$$$

 Created by Python create_sdf_string function

 28 31  0  0  0  0  0  0  0  0999 V2000
   -1.0054  -13.0622   19.1198 C   0  0  0  0  0  0  0  0  0  0  0  0
    3.1478   -8.5360   28.5161 C   0  0  0  0  0  0  0  0  0  0  0  0
    0.5798   -7.1906   27.9330 C   0  0  0  0  0  0  0  0  0  0  0  0
    0.3978   -5.1561   26.6955 C   0  0  0  0  0  0  0  0  0  0  0  0
    2.3063  -10.0533   30.0125 C   0  0  0  0  0  0  0  0  0  0  0  0
    1.8591   -6.8254   27.4685 N   0  0  0  0  0  0  0  0  0  0  0  0
   -0.2167  -12.1055   18.5568 C   0  0  0  0  0  0  0  0  0  0  0  0
   -2.0661  -10.6994   18.1916 C   0  0  0  0  0  0  0  0  0  0  0  0
    5.2703   -7.5691   27.1123 C   0  0  0  0  0  0  0  0  0  0  0  0
    1.6204   -9.9887   17.2935 C   0  0  0  0  0  0  0  0  0  0  0  0
    1.8931   -7.9265   16.2047 C   0  0  0  0  0  0  0  0  0  0  0  0
    2.4396   -9.0801   16.7132 C   0  0  0  0  0  0  0  0  0  0  0  0
   -0.2575   -8.6234   16.8582 C   0  0  0  0  0  0  0  0  0  0  0  0
    4.0614   -7.0367   27.0106 N   0  0  0  0  0  0  0  0  0  0  0  0
   -2.9133  -11.6279   18.7578 C   0  0  0  0  0  0  0  0  0  0  0  0
    4.5688  -10.1291   29.5758 C   0  0  0  0  0  0  0  0  0  0  0  0
    2.1008   -9.0410   29.1852 N   0  0  0  0  0  0  0  0  0  0  0  0
    3.4829  -10.5697   30.2091 N   0  0  0  0  0  0  0  0  0  0  0  0
   -0.3363   -6.1172   27.5628 C   0  0  0  0  0  0  0  0  0  0  0  0
    3.0331   -7.4400   27.6362 C   0  0  0  0  0  0  0  0  0  0  0  0
    5.4553   -8.5933   27.9644 C   0  0  0  0  0  0  0  0  0  0  0  0
   -2.3870  -12.8440   19.2512 C   0  0  0  0  0  0  0  0  0  0  0  0
    0.5331   -7.6964   16.2751 C   0  0  0  0  0  0  0  0  0  0  0  0
   -0.6740  -10.8737   18.0482 C   0  0  0  0  0  0  0  0  0  0  0  0
    5.6751  -10.5870   29.7637 O   0  0  0  0  0  0  0  0  0  0  0  0
    1.7612   -5.6483   26.7172 C   0  0  0  0  0  0  0  0  0  0  0  0
    0.2221   -9.8326   17.4055 C   0  0  0  0  0  0  0  0  0  0  0  0
    4.3850   -9.0730   28.6745 C   0  0  0  0  0  0  0  0  0  0  0  0
  1  7  4  0
  1 22  4  0
  2 17  4  0
  2 20  4  0
  2 28  4  0
  3  6  1  0
  3 19  1  0
  4 19  1  0
  4 26  1  0
  5 17  4  0
  5 18  4  0
  6 20  1  0
  6 26  1  0
  7 24  4  0
  8 15  4  0
  8 24  4  0
  9 14  4  0
  9 21  4  0
 10 12  4  0
 10 27  4  0
 11 12  4  0
 11 23  4  0
 13 23  4  0
 13 27  4  0
 14 20  4  0
 15 22  4  0
 16 18  4  0
 16 25  2  0
 16 28  4  0
 21 28  4  0
 24 27  1  0
M  END
$$$$

 Created by Python create_sdf_string function

 28 31  0  0  0  0  0  0  0  0999 V2000
   -1.0054  -13.0622   19.1198 C   0  0  0  0  0  0  0  0  0  0  0  0
    3.1478   -8.5360   28.5161 C   0  0  0  0  0  0  0  0  0  0  0  0
    0.5798   -7.1906   27.9330 C   0  0  0  0  0  0  0  0  0  0  0  0
    0.3978   -5.1561   26.6955 C   0  0  0  0  0  0  0  0  0  0  0  0
    2.3063  -10.0533   30.0125 C   0  0  0  0  0  0  0  0  0  0  0  0
    1.8591   -6.8254   27.4685 N   0  0  0  0  0  0  0  0  0  0  0  0
   -0.2167  -12.1055   18.5568 C   0  0  0  0  0  0  0  0  0  0  0  0
   -2.0661  -10.6994   18.1916 C   0  0  0  0  0  0  0  0  0  0  0  0
    5.2703   -7.5691   27.1123 C   0  0  0  0  0  0  0  0  0  0  0  0
    1.6204   -9.9887   17.2935 C   0  0  0  0  0  0  0  0  0  0  0  0
    1.8931   -7.9265   16.2047 C   0  0  0  0  0  0  0  0  0  0  0  0
    2.4396   -9.0801   16.7132 C   0  0  0  0  0  0  0  0  0  0  0  0
   -0.2575   -8.6234   16.8582 C   0  0  0  0  0  0  0  0  0  0  0  0
    4.0614   -7.0367   27.0106 N   0  0  0  0  0  0  0  0  0  0  0  0
   -2.9133  -11.6279   18.7578 C   0  0  0  0  0  0  0  0  0  0  0  0
    4.5688  -10.1291   29.5758 C   0  0  0  0  0  0  0  0  0  0  0  0
    2.1008   -9.0410   29.1852 N   0  0  0  0  0  0  0  0  0  0  0  0
    3.4829  -10.5697   30.2091 N   0  0  0  0  0  0  0  0  0  0  0  0
   -0.3363   -6.1172   27.5628 C   0  0  0  0  0  0  0  0  0  0  0  0
    3.0331   -7.4400   27.6362 C   0  0  0  0  0  0  0  0  0  0  0  0
    5.4553   -8.5933   27.9644 C   0  0  0  0  0  0  0  0  0  0  0  0
   -2.3870  -12.8440   19.2512 C   0  0  0  0  0  0  0  0  0  0  0  0
    0.5331   -7.6964   16.2751 C   0  0  0  0  0  0  0  0  0  0  0  0
   -0.6740  -10.8737   18.0482 C   0  0  0  0  0  0  0  0  0  0  0  0
    5.6751  -10.5870   29.7637 O   0  0  0  0  0  0  0  0  0  0  0  0
    1.7612   -5.6483   26.7172 C   0  0  0  0  0  0  0  0  0  0  0  0
    0.2221   -9.8326   17.4055 C   0  0  0  0  0  0  0  0  0  0  0  0
    4.3850   -9.0730   28.6745 C   0  0  0  0  0  0  0  0  0  0  0  0
  1  7  4  0
  1 22  4  0
  2 17  4  0
  2 20  4  0
  2 28  4  0
  3  6  1  0
  3 19  1  0
  4 19  1  0
  4 26  1  0
  5 17  4  0
  5 18  4  0
  6 20  1  0
  6 26  1  0
  7 24  4  0
  8 15  4  0
  8 24  4  0
  9 14  4  0
  9 21  4  0
 10 12  4  0
 10 27  4  0
 11 12  4  0
 11 23  4  0
 13 23  4  0
 13 27  4  0
 14 20  4  0
 15 22  4  0
 16 18  4  0
 16 25  2  0
 16 28  4  0
 21 28  4  0
 24 27  1  0
M  END
$$$$

 Created by Python create_sdf_string function

 28 31  0  0  0  0  0  0  0  0999 V2000
   -1.0054  -13.0622   19.1198 C   0  0  0  0  0  0  0  0  0  0  0  0
    3.1478   -8.5360   28.5161 C   0  0  0  0  0  0  0  0  0  0  0  0
    0.5798   -7.1906   27.9330 C   0  0  0  0  0  0  0  0  0  0  0  0
    0.3978   -5.1561   26.6955 C   0  0  0  0  0  0  0  0  0  0  0  0
    2.3063  -10.0533   30.0125 C   0  0  0  0  0  0  0  0  0  0  0  0
    1.8591   -6.8254   27.4685 N   0  0  0  0  0  0  0  0  0  0  0  0
   -0.2167  -12.1055   18.5568 C   0  0  0  0  0  0  0  0  0  0  0  0
   -2.0661  -10.6994   18.1916 C   0  0  0  0  0  0  0  0  0  0  0  0
    5.2703   -7.5691   27.1123 C   0  0  0  0  0  0  0  0  0  0  0  0
    1.6204   -9.9887   17.2935 C   0  0  0  0  0  0  0  0  0  0  0  0
    1.8931   -7.9265   16.2047 C   0  0  0  0  0  0  0  0  0  0  0  0
    2.4396   -9.0801   16.7132 C   0  0  0  0  0  0  0  0  0  0  0  0
   -0.2575   -8.6234   16.8582 C   0  0  0  0  0  0  0  0  0  0  0  0
    4.0614   -7.0367   27.0106 N   0  0  0  0  0  0  0  0  0  0  0  0
   -2.9133  -11.6279   18.7578 C   0  0  0  0  0  0  0  0  0  0  0  0
    4.5688  -10.1291   29.5758 C   0  0  0  0  0  0  0  0  0  0  0  0
    2.1008   -9.0410   29.1852 N   0  0  0  0  0  0  0  0  0  0  0  0
    3.4829  -10.5697   30.2091 N   0  0  0  0  0  0  0  0  0  0  0  0
   -0.3363   -6.1172   27.5628 C   0  0  0  0  0  0  0  0  0  0  0  0
    3.0331   -7.4400   27.6362 C   0  0  0  0  0  0  0  0  0  0  0  0
    5.4553   -8.5933   27.9644 C   0  0  0  0  0  0  0  0  0  0  0  0
   -2.3870  -12.8440   19.2512 C   0  0  0  0  0  0  0  0  0  0  0  0
    0.5331   -7.6964   16.2751 C   0  0  0  0  0  0  0  0  0  0  0  0
   -0.6740  -10.8737   18.0482 C   0  0  0  0  0  0  0  0  0  0  0  0
    5.6751  -10.5870   29.7637 O   0  0  0  0  0  0  0  0  0  0  0  0
    1.7612   -5.6483   26.7172 C   0  0  0  0  0  0  0  0  0  0  0  0
    0.2221   -9.8326   17.4055 C   0  0  0  0  0  0  0  0  0  0  0  0
    4.3850   -9.0730   28.6745 C   0  0  0  0  0  0  0  0  0  0  0  0
  1  7  4  0
  1 22  4  0
  2 17  4  0
  2 20  4  0
  2 28  4  0
  3  6  1  0
  3 19  1  0
  4 19  1  0
  4 26  1  0
  5 17  4  0
  5 18  4  0
  6 20  1  0
  6 26  1  0
  7 24  4  0
  8 15  4  0
  8 24  4  0
  9 14  4  0
  9 21  4  0
 10 12  4  0
 10 27  4  0
 11 12  4  0
 11 23  4  0
 13 23  4  0
 13 27  4  0
 14 20  4  0
 15 22  4  0
 16 18  4  0
 16 25  2  0
 16 28  4  0
 21 28  4  0
 24 27  1  0
M  END
$$$$

 Created by Python create_sdf_string function

 28 31  0  0  0  0  0  0  0  0999 V2000
   -1.0054  -13.0622   19.1198 C   0  0  0  0  0  0  0  0  0  0  0  0
    3.1478   -8.5360   28.5161 C   0  0  0  0  0  0  0  0  0  0  0  0
    0.5798   -7.1906   27.9330 C   0  0  0  0  0  0  0  0  0  0  0  0
    0.3978   -5.1561   26.6955 C   0  0  0  0  0  0  0  0  0  0  0  0
    2.3063  -10.0533   30.0125 C   0  0  0  0  0  0  0  0  0  0  0  0
    1.8591   -6.8254   27.4685 N   0  0  0  0  0  0  0  0  0  0  0  0
   -0.2167  -12.1055   18.5568 C   0  0  0  0  0  0  0  0  0  0  0  0
   -2.0661  -10.6994   18.1916 C   0  0  0  0  0  0  0  0  0  0  0  0
    5.2703   -7.5691   27.1123 C   0  0  0  0  0  0  0  0  0  0  0  0
    1.6204   -9.9887   17.2935 C   0  0  0  0  0  0  0  0  0  0  0  0
    1.8931   -7.9265   16.2047 C   0  0  0  0  0  0  0  0  0  0  0  0
    2.4396   -9.0801   16.7132 C   0  0  0  0  0  0  0  0  0  0  0  0
   -0.2575   -8.6234   16.8582 C   0  0  0  0  0  0  0  0  0  0  0  0
    4.0614   -7.0367   27.0106 N   0  0  0  0  0  0  0  0  0  0  0  0
   -2.9133  -11.6279   18.7578 C   0  0  0  0  0  0  0  0  0  0  0  0
    4.5688  -10.1291   29.5758 C   0  0  0  0  0  0  0  0  0  0  0  0
    2.1008   -9.0410   29.1852 N   0  0  0  0  0  0  0  0  0  0  0  0
    3.4829  -10.5697   30.2091 N   0  0  0  0  0  0  0  0  0  0  0  0
   -0.3363   -6.1172   27.5628 C   0  0  0  0  0  0  0  0  0  0  0  0
    3.0331   -7.4400   27.6362 C   0  0  0  0  0  0  0  0  0  0  0  0
    5.4553   -8.5933   27.9644 C   0  0  0  0  0  0  0  0  0  0  0  0
   -2.3870  -12.8440   19.2512 C   0  0  0  0  0  0  0  0  0  0  0  0
    0.5331   -7.6964   16.2751 C   0  0  0  0  0  0  0  0  0  0  0  0
   -0.6740  -10.8737   18.0482 C   0  0  0  0  0  0  0  0  0  0  0  0
    5.6751  -10.5870   29.7637 O   0  0  0  0  0  0  0  0  0  0  0  0
    1.7612   -5.6483   26.7172 C   0  0  0  0  0  0  0  0  0  0  0  0
    0.2221   -9.8326   17.4055 C   0  0  0  0  0  0  0  0  0  0  0  0
    4.3850   -9.0730   28.6745 C   0  0  0  0  0  0  0  0  0  0  0  0
  1  7  4  0
  1 22  4  0
  2 17  4  0
  2 20  4  0
  2 28  4  0
  3  6  1  0
  3 19  1  0
  4 19  1  0
  4 26  1  0
  5 17  4  0
  5 18  4  0
  6 20  1  0
  6 26  1  0
  7 24  4  0
  8 15  4  0
  8 24  4  0
  9 14  4  0
  9 21  4  0
 10 12  4  0
 10 27  4  0
 11 12  4  0
 11 23  4  0
 13 23  4  0
 13 27  4  0
 14 20  4  0
 15 22  4  0
 16 18  4  0
 16 25  2  0
 16 28  4  0
 21 28  4  0
 24 27  1  0
M  END
$$$$

 Created by Python create_sdf_string function

 28 31  0  0  0  0  0  0  0  0999 V2000
   -1.0054  -13.0622   19.1198 C   0  0  0  0  0  0  0  0  0  0  0  0
    3.1478   -8.5360   28.5161 C   0  0  0  0  0  0  0  0  0  0  0  0
    0.5798   -7.1906   27.9330 C   0  0  0  0  0  0  0  0  0  0  0  0
    0.3978   -5.1561   26.6955 C   0  0  0  0  0  0  0  0  0  0  0  0
    2.3063  -10.0533   30.0125 C   0  0  0  0  0  0  0  0  0  0  0  0
    1.8591   -6.8254   27.4685 N   0  0  0  0  0  0  0  0  0  0  0  0
   -0.2167  -12.1055   18.5568 C   0  0  0  0  0  0  0  0  0  0  0  0
   -2.0661  -10.6994   18.1916 C   0  0  0  0  0  0  0  0  0  0  0  0
    5.2703   -7.5691   27.1123 C   0  0  0  0  0  0  0  0  0  0  0  0
    1.6204   -9.9887   17.2935 C   0  0  0  0  0  0  0  0  0  0  0  0
    1.8931   -7.9265   16.2047 C   0  0  0  0  0  0  0  0  0  0  0  0
    2.4396   -9.0801   16.7132 C   0  0  0  0  0  0  0  0  0  0  0  0
   -0.2575   -8.6234   16.8582 C   0  0  0  0  0  0  0  0  0  0  0  0
    4.0614   -7.0367   27.0106 N   0  0  0  0  0  0  0  0  0  0  0  0
   -2.9133  -11.6279   18.7578 C   0  0  0  0  0  0  0  0  0  0  0  0
    4.5688  -10.1291   29.5758 C   0  0  0  0  0  0  0  0  0  0  0  0
    2.1008   -9.0410   29.1852 N   0  0  0  0  0  0  0  0  0  0  0  0
    3.4829  -10.5697   30.2091 N   0  0  0  0  0  0  0  0  0  0  0  0
   -0.3363   -6.1172   27.5628 C   0  0  0  0  0  0  0  0  0  0  0  0
    3.0331   -7.4400   27.6362 C   0  0  0  0  0  0  0  0  0  0  0  0
    5.4553   -8.5933   27.9644 C   0  0  0  0  0  0  0  0  0  0  0  0
   -2.3870  -12.8440   19.2512 C   0  0  0  0  0  0  0  0  0  0  0  0
    0.5331   -7.6964   16.2751 C   0  0  0  0  0  0  0  0  0  0  0  0
   -0.6740  -10.8737   18.0482 C   0  0  0  0  0  0  0  0  0  0  0  0
    5.6751  -10.5870   29.7637 O   0  0  0  0  0  0  0  0  0  0  0  0
    1.7612   -5.6483   26.7172 C   0  0  0  0  0  0  0  0  0  0  0  0
    0.2221   -9.8326   17.4055 C   0  0  0  0  0  0  0  0  0  0  0  0
    4.3850   -9.0730   28.6745 C   0  0  0  0  0  0  0  0  0  0  0  0
  1  7  4  0
  1 22  4  0
  2 17  4  0
  2 20  4  0
  2 28  4  0
  3  6  1  0
  3 19  1  0
  4 19  1  0
  4 26  1  0
  5 17  4  0
  5 18  4  0
  6 20  1  0
  6 26  1  0
  7 24  4  0
  8 15  4  0
  8 24  4  0
  9 14  4  0
  9 21  4  0
 10 12  4  0
 10 27  4  0
 11 12  4  0
 11 23  4  0
 13 23  4  0
 13 27  4  0
 14 20  4  0
 15 22  4  0
 16 18  4  0
 16 25  2  0
 16 28  4  0
 21 28  4  0
 24 27  1  0
M  END
$$$$

 Created by Python create_sdf_string function

 28 31  0  0  0  0  0  0  0  0999 V2000
   -1.0054  -13.0622   19.1198 C   0  0  0  0  0  0  0  0  0  0  0  0
    3.1478   -8.5360   28.5161 C   0  0  0  0  0  0  0  0  0  0  0  0
    0.5798   -7.1906   27.9330 C   0  0  0  0  0  0  0  0  0  0  0  0
    0.3978   -5.1561   26.6955 C   0  0  0  0  0  0  0  0  0  0  0  0
    2.3063  -10.0533   30.0125 C   0  0  0  0  0  0  0  0  0  0  0  0
    1.8591   -6.8254   27.4685 N   0  0  0  0  0  0  0  0  0  0  0  0
   -0.2167  -12.1055   18.5568 C   0  0  0  0  0  0  0  0  0  0  0  0
   -2.0661  -10.6994   18.1916 C   0  0  0  0  0  0  0  0  0  0  0  0
    5.2703   -7.5691   27.1123 C   0  0  0  0  0  0  0  0  0  0  0  0
    1.6204   -9.9887   17.2935 C   0  0  0  0  0  0  0  0  0  0  0  0
    1.8931   -7.9265   16.2047 C   0  0  0  0  0  0  0  0  0  0  0  0
    2.4396   -9.0801   16.7132 C   0  0  0  0  0  0  0  0  0  0  0  0
   -0.2575   -8.6234   16.8582 C   0  0  0  0  0  0  0  0  0  0  0  0
    4.0614   -7.0367   27.0106 N   0  0  0  0  0  0  0  0  0  0  0  0
   -2.9133  -11.6279   18.7578 C   0  0  0  0  0  0  0  0  0  0  0  0
    4.5688  -10.1291   29.5758 C   0  0  0  0  0  0  0  0  0  0  0  0
    2.1008   -9.0410   29.1852 N   0  0  0  0  0  0  0  0  0  0  0  0
    3.4829  -10.5697   30.2091 N   0  0  0  0  0  0  0  0  0  0  0  0
   -0.3363   -6.1172   27.5628 C   0  0  0  0  0  0  0  0  0  0  0  0
    3.0331   -7.4400   27.6362 C   0  0  0  0  0  0  0  0  0  0  0  0
    5.4553   -8.5933   27.9644 C   0  0  0  0  0  0  0  0  0  0  0  0
   -2.3870  -12.8440   19.2512 C   0  0  0  0  0  0  0  0  0  0  0  0
    0.5331   -7.6964   16.2751 C   0  0  0  0  0  0  0  0  0  0  0  0
   -0.6740  -10.8737   18.0482 C   0  0  0  0  0  0  0  0  0  0  0  0
    5.6751  -10.5870   29.7637 O   0  0  0  0  0  0  0  0  0  0  0  0
    1.7612   -5.6483   26.7172 C   0  0  0  0  0  0  0  0  0  0  0  0
    0.2221   -9.8326   17.4055 C   0  0  0  0  0  0  0  0  0  0  0  0
    4.3850   -9.0730   28.6745 C   0  0  0  0  0  0  0  0  0  0  0  0
  1  7  4  0
  1 22  4  0
  2 17  4  0
  2 20  4  0
  2 28  4  0
  3  6  1  0
  3 19  1  0
  4 19  1  0
  4 26  1  0
  5 17  4  0
  5 18  4  0
  6 20  1  0
  6 26  1  0
  7 24  4  0
  8 15  4  0
  8 24  4  0
  9 14  4  0
  9 21  4  0
 10 12  4  0
 10 27  4  0
 11 12  4  0
 11 23  4  0
 13 23  4  0
 13 27  4  0
 14 20  4  0
 15 22  4  0
 16 18  4  0
 16 25  2  0
 16 28  4  0
 21 28  4  0
 24 27  1  0
M  END
$$$$

 Created by Python create_sdf_string function

 28 31  0  0  0  0  0  0  0  0999 V2000
   -1.0054  -13.0622   19.1198 C   0  0  0  0  0  0  0  0  0  0  0  0
    3.1478   -8.5360   28.5161 C   0  0  0  0  0  0  0  0  0  0  0  0
    0.5798   -7.1906   27.9330 C   0  0  0  0  0  0  0  0  0  0  0  0
    0.3978   -5.1561   26.6955 C   0  0  0  0  0  0  0  0  0  0  0  0
    2.3063  -10.0533   30.0125 C   0  0  0  0  0  0  0  0  0  0  0  0
    1.8591   -6.8254   27.4685 N   0  0  0  0  0  0  0  0  0  0  0  0
   -0.2167  -12.1055   18.5568 C   0  0  0  0  0  0  0  0  0  0  0  0
   -2.0661  -10.6994   18.1916 C   0  0  0  0  0  0  0  0  0  0  0  0
    5.2703   -7.5691   27.1123 C   0  0  0  0  0  0  0  0  0  0  0  0
    1.6204   -9.9887   17.2935 C   0  0  0  0  0  0  0  0  0  0  0  0
    1.8931   -7.9265   16.2047 C   0  0  0  0  0  0  0  0  0  0  0  0
    2.4396   -9.0801   16.7132 C   0  0  0  0  0  0  0  0  0  0  0  0
   -0.2575   -8.6234   16.8582 C   0  0  0  0  0  0  0  0  0  0  0  0
    4.0614   -7.0367   27.0106 N   0  0  0  0  0  0  0  0  0  0  0  0
   -2.9133  -11.6279   18.7578 C   0  0  0  0  0  0  0  0  0  0  0  0
    4.5688  -10.1291   29.5758 C   0  0  0  0  0  0  0  0  0  0  0  0
    2.1008   -9.0410   29.1852 N   0  0  0  0  0  0  0  0  0  0  0  0
    3.4829  -10.5697   30.2091 N   0  0  0  0  0  0  0  0  0  0  0  0
   -0.3363   -6.1172   27.5628 C   0  0  0  0  0  0  0  0  0  0  0  0
    3.0331   -7.4400   27.6362 C   0  0  0  0  0  0  0  0  0  0  0  0
    5.4553   -8.5933   27.9644 C   0  0  0  0  0  0  0  0  0  0  0  0
   -2.3870  -12.8440   19.2512 C   0  0  0  0  0  0  0  0  0  0  0  0
    0.5331   -7.6964   16.2751 C   0  0  0  0  0  0  0  0  0  0  0  0
   -0.6740  -10.8737   18.0482 C   0  0  0  0  0  0  0  0  0  0  0  0
    5.6751  -10.5870   29.7637 O   0  0  0  0  0  0  0  0  0  0  0  0
    1.7612   -5.6483   26.7172 C   0  0  0  0  0  0  0  0  0  0  0  0
    0.2221   -9.8326   17.4055 C   0  0  0  0  0  0  0  0  0  0  0  0
    4.3850   -9.0730   28.6745 C   0  0  0  0  0  0  0  0  0  0  0  0
  1  7  4  0
  1 22  4  0
  2 17  4  0
  2 20  4  0
  2 28  4  0
  3  6  1  0
  3 19  1  0
  4 19  1  0
  4 26  1  0
  5 17  4  0
  5 18  4  0
  6 20  1  0
  6 26  1  0
  7 24  4  0
  8 15  4  0
  8 24  4  0
  9 14  4  0
  9 21  4  0
 10 12  4  0
 10 27  4  0
 11 12  4  0
 11 23  4  0
 13 23  4  0
 13 27  4  0
 14 20  4  0
 15 22  4  0
 16 18  4  0
 16 25  2  0
 16 28  4  0
 21 28  4  0
 24 27  1  0
M  END
$$$$

 Created by Python create_sdf_string function

 28 31  0  0  0  0  0  0  0  0999 V2000
   -1.0054  -13.0622   19.1198 C   0  0  0  0  0  0  0  0  0  0  0  0
    3.1478   -8.5360   28.5161 C   0  0  0  0  0  0  0  0  0  0  0  0
    0.5798   -7.1906   27.9330 C   0  0  0  0  0  0  0  0  0  0  0  0
    0.3978   -5.1561   26.6955 C   0  0  0  0  0  0  0  0  0  0  0  0
    2.3063  -10.0533   30.0125 C   0  0  0  0  0  0  0  0  0  0  0  0
    1.8591   -6.8254   27.4685 N   0  0  0  0  0  0  0  0  0  0  0  0
   -0.2167  -12.1055   18.5568 C   0  0  0  0  0  0  0  0  0  0  0  0
   -2.0661  -10.6994   18.1916 C   0  0  0  0  0  0  0  0  0  0  0  0
    5.2703   -7.5691   27.1123 C   0  0  0  0  0  0  0  0  0  0  0  0
    1.6204   -9.9887   17.2935 C   0  0  0  0  0  0  0  0  0  0  0  0
    1.8931   -7.9265   16.2047 C   0  0  0  0  0  0  0  0  0  0  0  0
    2.4396   -9.0801   16.7132 C   0  0  0  0  0  0  0  0  0  0  0  0
   -0.2575   -8.6234   16.8582 C   0  0  0  0  0  0  0  0  0  0  0  0
    4.0614   -7.0367   27.0106 N   0  0  0  0  0  0  0  0  0  0  0  0
   -2.9133  -11.6279   18.7578 C   0  0  0  0  0  0  0  0  0  0  0  0
    4.5688  -10.1291   29.5758 C   0  0  0  0  0  0  0  0  0  0  0  0
    2.1008   -9.0410   29.1852 N   0  0  0  0  0  0  0  0  0  0  0  0
    3.4829  -10.5697   30.2091 N   0  0  0  0  0  0  0  0  0  0  0  0
   -0.3363   -6.1172   27.5628 C   0  0  0  0  0  0  0  0  0  0  0  0
    3.0331   -7.4400   27.6362 C   0  0  0  0  0  0  0  0  0  0  0  0
    5.4553   -8.5933   27.9644 C   0  0  0  0  0  0  0  0  0  0  0  0
   -2.3870  -12.8440   19.2512 C   0  0  0  0  0  0  0  0  0  0  0  0
    0.5331   -7.6964   16.2751 C   0  0  0  0  0  0  0  0  0  0  0  0
   -0.6740  -10.8737   18.0482 C   0  0  0  0  0  0  0  0  0  0  0  0
    5.6751  -10.5870   29.7637 O   0  0  0  0  0  0  0  0  0  0  0  0
    1.7612   -5.6483   26.7172 C   0  0  0  0  0  0  0  0  0  0  0  0
    0.2221   -9.8326   17.4055 C   0  0  0  0  0  0  0  0  0  0  0  0
    4.3850   -9.0730   28.6745 C   0  0  0  0  0  0  0  0  0  0  0  0
  1  7  4  0
  1 22  4  0
  2 17  4  0
  2 20  4  0
  2 28  4  0
  3  6  1  0
  3 19  1  0
  4 19  1  0
  4 26  1  0
  5 17  4  0
  5 18  4  0
  6 20  1  0
  6 26  1  0
  7 24  4  0
  8 15  4  0
  8 24  4  0
  9 14  4  0
  9 21  4  0
 10 12  4  0
 10 27  4  0
 11 12  4  0
 11 23  4  0
 13 23  4  0
 13 27  4  0
 14 20  4  0
 15 22  4  0
 16 18  4  0
 16 25  2  0
 16 28  4  0
 21 28  4  0
 24 27  1  0
M  END
$$$$

 Created by Python create_sdf_string function

 28 31  0  0  0  0  0  0  0  0999 V2000
   -1.0054  -13.0622   19.1198 C   0  0  0  0  0  0  0  0  0  0  0  0
    3.1478   -8.5360   28.5161 C   0  0  0  0  0  0  0  0  0  0  0  0
    0.5798   -7.1906   27.9330 C   0  0  0  0  0  0  0  0  0  0  0  0
    0.3978   -5.1561   26.6955 C   0  0  0  0  0  0  0  0  0  0  0  0
    2.3063  -10.0533   30.0125 C   0  0  0  0  0  0  0  0  0  0  0  0
    1.8591   -6.8254   27.4685 N   0  0  0  0  0  0  0  0  0  0  0  0
   -0.2167  -12.1055   18.5568 C   0  0  0  0  0  0  0  0  0  0  0  0
   -2.0661  -10.6994   18.1916 C   0  0  0  0  0  0  0  0  0  0  0  0
    5.2703   -7.5691   27.1123 C   0  0  0  0  0  0  0  0  0  0  0  0
    1.6204   -9.9887   17.2935 C   0  0  0  0  0  0  0  0  0  0  0  0
    1.8931   -7.9265   16.2047 C   0  0  0  0  0  0  0  0  0  0  0  0
    2.4396   -9.0801   16.7132 C   0  0  0  0  0  0  0  0  0  0  0  0
   -0.2575   -8.6234   16.8582 C   0  0  0  0  0  0  0  0  0  0  0  0
    4.0614   -7.0367   27.0106 N   0  0  0  0  0  0  0  0  0  0  0  0
   -2.9133  -11.6279   18.7578 C   0  0  0  0  0  0  0  0  0  0  0  0
    4.5688  -10.1291   29.5758 C   0  0  0  0  0  0  0  0  0  0  0  0
    2.1008   -9.0410   29.1852 N   0  0  0  0  0  0  0  0  0  0  0  0
    3.4829  -10.5697   30.2091 N   0  0  0  0  0  0  0  0  0  0  0  0
   -0.3363   -6.1172   27.5628 C   0  0  0  0  0  0  0  0  0  0  0  0
    3.0331   -7.4400   27.6362 C   0  0  0  0  0  0  0  0  0  0  0  0
    5.4553   -8.5933   27.9644 C   0  0  0  0  0  0  0  0  0  0  0  0
   -2.3870  -12.8440   19.2512 C   0  0  0  0  0  0  0  0  0  0  0  0
    0.5331   -7.6964   16.2751 C   0  0  0  0  0  0  0  0  0  0  0  0
   -0.6740  -10.8737   18.0482 C   0  0  0  0  0  0  0  0  0  0  0  0
    5.6751  -10.5870   29.7637 O   0  0  0  0  0  0  0  0  0  0  0  0
    1.7612   -5.6483   26.7172 C   0  0  0  0  0  0  0  0  0  0  0  0
    0.2221   -9.8326   17.4055 C   0  0  0  0  0  0  0  0  0  0  0  0
    4.3850   -9.0730   28.6745 C   0  0  0  0  0  0  0  0  0  0  0  0
  1  7  4  0
  1 22  4  0
  2 17  4  0
  2 20  4  0
  2 28  4  0
  3  6  1  0
  3 19  1  0
  4 19  1  0
  4 26  1  0
  5 17  4  0
  5 18  4  0
  6 20  1  0
  6 26  1  0
  7 24  4  0
  8 15  4  0
  8 24  4  0
  9 14  4  0
  9 21  4  0
 10 12  4  0
 10 27  4  0
 11 12  4  0
 11 23  4  0
 13 23  4  0
 13 27  4  0
 14 20  4  0
 15 22  4  0
 16 18  4  0
 16 25  2  0
 16 28  4  0
 21 28  4  0
 24 27  1  0
M  END
$$$$

 Created by Python create_sdf_string function

 28 31  0  0  0  0  0  0  0  0999 V2000
   -1.0054  -13.0622   19.1198 C   0  0  0  0  0  0  0  0  0  0  0  0
    3.1478   -8.5360   28.5161 C   0  0  0  0  0  0  0  0  0  0  0  0
    0.5798   -7.1906   27.9330 C   0  0  0  0  0  0  0  0  0  0  0  0
    0.3978   -5.1561   26.6955 C   0  0  0  0  0  0  0  0  0  0  0  0
    2.3063  -10.0533   30.0125 C   0  0  0  0  0  0  0  0  0  0  0  0
    1.8591   -6.8254   27.4685 N   0  0  0  0  0  0  0  0  0  0  0  0
   -0.2167  -12.1055   18.5568 C   0  0  0  0  0  0  0  0  0  0  0  0
   -2.0661  -10.6994   18.1916 C   0  0  0  0  0  0  0  0  0  0  0  0
    5.2703   -7.5691   27.1123 C   0  0  0  0  0  0  0  0  0  0  0  0
    1.6204   -9.9887   17.2935 C   0  0  0  0  0  0  0  0  0  0  0  0
    1.8931   -7.9265   16.2047 C   0  0  0  0  0  0  0  0  0  0  0  0
    2.4396   -9.0801   16.7132 C   0  0  0  0  0  0  0  0  0  0  0  0
   -0.2575   -8.6234   16.8582 C   0  0  0  0  0  0  0  0  0  0  0  0
    4.0614   -7.0367   27.0106 N   0  0  0  0  0  0  0  0  0  0  0  0
   -2.9133  -11.6279   18.7578 C   0  0  0  0  0  0  0  0  0  0  0  0
    4.5688  -10.1291   29.5758 C   0  0  0  0  0  0  0  0  0  0  0  0
    2.1008   -9.0410   29.1852 N   0  0  0  0  0  0  0  0  0  0  0  0
    3.4829  -10.5697   30.2091 N   0  0  0  0  0  0  0  0  0  0  0  0
   -0.3363   -6.1172   27.5628 C   0  0  0  0  0  0  0  0  0  0  0  0
    3.0331   -7.4400   27.6362 C   0  0  0  0  0  0  0  0  0  0  0  0
    5.4553   -8.5933   27.9644 C   0  0  0  0  0  0  0  0  0  0  0  0
   -2.3870  -12.8440   19.2512 C   0  0  0  0  0  0  0  0  0  0  0  0
    0.5331   -7.6964   16.2751 C   0  0  0  0  0  0  0  0  0  0  0  0
   -0.6740  -10.8737   18.0482 C   0  0  0  0  0  0  0  0  0  0  0  0
    5.6751  -10.5870   29.7637 O   0  0  0  0  0  0  0  0  0  0  0  0
    1.7612   -5.6483   26.7172 C   0  0  0  0  0  0  0  0  0  0  0  0
    0.2221   -9.8326   17.4055 C   0  0  0  0  0  0  0  0  0  0  0  0
    4.3850   -9.0730   28.6745 C   0  0  0  0  0  0  0  0  0  0  0  0
  1  7  4  0
  1 22  4  0
  2 17  4  0
  2 20  4  0
  2 28  4  0
  3  6  1  0
  3 19  1  0
  4 19  1  0
  4 26  1  0
  5 17  4  0
  5 18  4  0
  6 20  1  0
  6 26  1  0
  7 24  4  0
  8 15  4  0
  8 24  4  0
  9 14  4  0
  9 21  4  0
 10 12  4  0
 10 27  4  0
 11 12  4  0
 11 23  4  0
 13 23  4  0
 13 27  4  0
 14 20  4  0
 15 22  4  0
 16 18  4  0
 16 25  2  0
 16 28  4  0
 21 28  4  0
 24 27  1  0
M  END
$$$$

 Created by Python create_sdf_string function

 28 31  0  0  0  0  0  0  0  0999 V2000
   -1.0054  -13.0622   19.1198 C   0  0  0  0  0  0  0  0  0  0  0  0
    3.1478   -8.5360   28.5161 C   0  0  0  0  0  0  0  0  0  0  0  0
    0.5798   -7.1906   27.9330 C   0  0  0  0  0  0  0  0  0  0  0  0
    0.3978   -5.1561   26.6955 C   0  0  0  0  0  0  0  0  0  0  0  0
    2.3063  -10.0533   30.0125 C   0  0  0  0  0  0  0  0  0  0  0  0
    1.8591   -6.8254   27.4685 N   0  0  0  0  0  0  0  0  0  0  0  0
   -0.2167  -12.1055   18.5568 C   0  0  0  0  0  0  0  0  0  0  0  0
   -2.0661  -10.6994   18.1916 C   0  0  0  0  0  0  0  0  0  0  0  0
    5.2703   -7.5691   27.1123 C   0  0  0  0  0  0  0  0  0  0  0  0
    1.6204   -9.9887   17.2935 C   0  0  0  0  0  0  0  0  0  0  0  0
    1.8931   -7.9265   16.2047 C   0  0  0  0  0  0  0  0  0  0  0  0
    2.4396   -9.0801   16.7132 C   0  0  0  0  0  0  0  0  0  0  0  0
   -0.2575   -8.6234   16.8582 C   0  0  0  0  0  0  0  0  0  0  0  0
    4.0614   -7.0367   27.0106 N   0  0  0  0  0  0  0  0  0  0  0  0
   -2.9133  -11.6279   18.7578 C   0  0  0  0  0  0  0  0  0  0  0  0
    4.5688  -10.1291   29.5758 C   0  0  0  0  0  0  0  0  0  0  0  0
    2.1008   -9.0410   29.1852 N   0  0  0  0  0  0  0  0  0  0  0  0
    3.4829  -10.5697   30.2091 N   0  0  0  0  0  0  0  0  0  0  0  0
   -0.3363   -6.1172   27.5628 C   0  0  0  0  0  0  0  0  0  0  0  0
    3.0331   -7.4400   27.6362 C   0  0  0  0  0  0  0  0  0  0  0  0
    5.4553   -8.5933   27.9644 C   0  0  0  0  0  0  0  0  0  0  0  0
   -2.3870  -12.8440   19.2512 C   0  0  0  0  0  0  0  0  0  0  0  0
    0.5331   -7.6964   16.2751 C   0  0  0  0  0  0  0  0  0  0  0  0
   -0.6740  -10.8737   18.0482 C   0  0  0  0  0  0  0  0  0  0  0  0
    5.6751  -10.5870   29.7637 O   0  0  0  0  0  0  0  0  0  0  0  0
    1.7612   -5.6483   26.7172 C   0  0  0  0  0  0  0  0  0  0  0  0
    0.2221   -9.8326   17.4055 C   0  0  0  0  0  0  0  0  0  0  0  0
    4.3850   -9.0730   28.6745 C   0  0  0  0  0  0  0  0  0  0  0  0
  1  7  4  0
  1 22  4  0
  2 17  4  0
  2 20  4  0
  2 28  4  0
  3  6  1  0
  3 19  1  0
  4 19  1  0
  4 26  1  0
  5 17  4  0
  5 18  4  0
  6 20  1  0
  6 26  1  0
  7 24  4  0
  8 15  4  0
  8 24  4  0
  9 14  4  0
  9 21  4  0
 10 12  4  0
 10 27  4  0
 11 12  4  0
 11 23  4  0
 13 23  4  0
 13 27  4  0
 14 20  4  0
 15 22  4  0
 16 18  4  0
 16 25  2  0
 16 28  4  0
 21 28  4  0
 24 27  1  0
M  END
$$$$

 Created by Python create_sdf_string function

 28 31  0  0  0  0  0  0  0  0999 V2000
   -1.0054  -13.0622   19.1198 C   0  0  0  0  0  0  0  0  0  0  0  0
    3.1478   -8.5360   28.5161 C   0  0  0  0  0  0  0  0  0  0  0  0
    0.5798   -7.1906   27.9330 C   0  0  0  0  0  0  0  0  0  0  0  0
    0.3978   -5.1561   26.6955 C   0  0  0  0  0  0  0  0  0  0  0  0
    2.3063  -10.0533   30.0125 C   0  0  0  0  0  0  0  0  0  0  0  0
    1.8591   -6.8254   27.4685 N   0  0  0  0  0  0  0  0  0  0  0  0
   -0.2167  -12.1055   18.5568 C   0  0  0  0  0  0  0  0  0  0  0  0
   -2.0661  -10.6994   18.1916 C   0  0  0  0  0  0  0  0  0  0  0  0
    5.2703   -7.5691   27.1123 C   0  0  0  0  0  0  0  0  0  0  0  0
    1.6204   -9.9887   17.2935 C   0  0  0  0  0  0  0  0  0  0  0  0
    1.8931   -7.9265   16.2047 C   0  0  0  0  0  0  0  0  0  0  0  0
    2.4396   -9.0801   16.7132 C   0  0  0  0  0  0  0  0  0  0  0  0
   -0.2575   -8.6234   16.8582 C   0  0  0  0  0  0  0  0  0  0  0  0
    4.0614   -7.0367   27.0106 N   0  0  0  0  0  0  0  0  0  0  0  0
   -2.9133  -11.6279   18.7578 C   0  0  0  0  0  0  0  0  0  0  0  0
    4.5688  -10.1291   29.5758 C   0  0  0  0  0  0  0  0  0  0  0  0
    2.1008   -9.0410   29.1852 N   0  0  0  0  0  0  0  0  0  0  0  0
    3.4829  -10.5697   30.2091 N   0  0  0  0  0  0  0  0  0  0  0  0
   -0.3363   -6.1172   27.5628 C   0  0  0  0  0  0  0  0  0  0  0  0
    3.0331   -7.4400   27.6362 C   0  0  0  0  0  0  0  0  0  0  0  0
    5.4553   -8.5933   27.9644 C   0  0  0  0  0  0  0  0  0  0  0  0
   -2.3870  -12.8440   19.2512 C   0  0  0  0  0  0  0  0  0  0  0  0
    0.5331   -7.6964   16.2751 C   0  0  0  0  0  0  0  0  0  0  0  0
   -0.6740  -10.8737   18.0482 C   0  0  0  0  0  0  0  0  0  0  0  0
    5.6751  -10.5870   29.7637 O   0  0  0  0  0  0  0  0  0  0  0  0
    1.7612   -5.6483   26.7172 C   0  0  0  0  0  0  0  0  0  0  0  0
    0.2221   -9.8326   17.4055 C   0  0  0  0  0  0  0  0  0  0  0  0
    4.3850   -9.0730   28.6745 C   0  0  0  0  0  0  0  0  0  0  0  0
  1  7  4  0
  1 22  4  0
  2 17  4  0
  2 20  4  0
  2 28  4  0
  3  6  1  0
  3 19  1  0
  4 19  1  0
  4 26  1  0
  5 17  4  0
  5 18  4  0
  6 20  1  0
  6 26  1  0
  7 24  4  0
  8 15  4  0
  8 24  4  0
  9 14  4  0
  9 21  4  0
 10 12  4  0
 10 27  4  0
 11 12  4  0
 11 23  4  0
 13 23  4  0
 13 27  4  0
 14 20  4  0
 15 22  4  0
 16 18  4  0
 16 25  2  0
 16 28  4  0
 21 28  4  0
 24 27  1  0
M  END
$$$$

 Created by Python create_sdf_string function

 28 31  0  0  0  0  0  0  0  0999 V2000
   -1.0054  -13.0622   19.1198 C   0  0  0  0  0  0  0  0  0  0  0  0
    3.1478   -8.5360   28.5161 C   0  0  0  0  0  0  0  0  0  0  0  0
    0.5798   -7.1906   27.9330 C   0  0  0  0  0  0  0  0  0  0  0  0
    0.3978   -5.1561   26.6955 C   0  0  0  0  0  0  0  0  0  0  0  0
    2.3063  -10.0533   30.0125 C   0  0  0  0  0  0  0  0  0  0  0  0
    1.8591   -6.8254   27.4685 N   0  0  0  0  0  0  0  0  0  0  0  0
   -0.2167  -12.1055   18.5568 C   0  0  0  0  0  0  0  0  0  0  0  0
   -2.0661  -10.6994   18.1916 C   0  0  0  0  0  0  0  0  0  0  0  0
    5.2703   -7.5691   27.1123 C   0  0  0  0  0  0  0  0  0  0  0  0
    1.6204   -9.9887   17.2935 C   0  0  0  0  0  0  0  0  0  0  0  0
    1.8931   -7.9265   16.2047 C   0  0  0  0  0  0  0  0  0  0  0  0
    2.4396   -9.0801   16.7132 C   0  0  0  0  0  0  0  0  0  0  0  0
   -0.2575   -8.6234   16.8582 C   0  0  0  0  0  0  0  0  0  0  0  0
    4.0614   -7.0367   27.0106 N   0  0  0  0  0  0  0  0  0  0  0  0
   -2.9133  -11.6279   18.7578 C   0  0  0  0  0  0  0  0  0  0  0  0
    4.5688  -10.1291   29.5758 C   0  0  0  0  0  0  0  0  0  0  0  0
    2.1008   -9.0410   29.1852 N   0  0  0  0  0  0  0  0  0  0  0  0
    3.4829  -10.5697   30.2091 N   0  0  0  0  0  0  0  0  0  0  0  0
   -0.3363   -6.1172   27.5628 C   0  0  0  0  0  0  0  0  0  0  0  0
    3.0331   -7.4400   27.6362 C   0  0  0  0  0  0  0  0  0  0  0  0
    5.4553   -8.5933   27.9644 C   0  0  0  0  0  0  0  0  0  0  0  0
   -2.3870  -12.8440   19.2512 C   0  0  0  0  0  0  0  0  0  0  0  0
    0.5331   -7.6964   16.2751 C   0  0  0  0  0  0  0  0  0  0  0  0
   -0.6740  -10.8737   18.0482 C   0  0  0  0  0  0  0  0  0  0  0  0
    5.6751  -10.5870   29.7637 O   0  0  0  0  0  0  0  0  0  0  0  0
    1.7612   -5.6483   26.7172 C   0  0  0  0  0  0  0  0  0  0  0  0
    0.2221   -9.8326   17.4055 C   0  0  0  0  0  0  0  0  0  0  0  0
    4.3850   -9.0730   28.6745 C   0  0  0  0  0  0  0  0  0  0  0  0
  1  7  4  0
  1 22  4  0
  2 17  4  0
  2 20  4  0
  2 28  4  0
  3  6  1  0
  3 19  1  0
  4 19  1  0
  4 26  1  0
  5 17  4  0
  5 18  4  0
  6 20  1  0
  6 26  1  0
  7 24  4  0
  8 15  4  0
  8 24  4  0
  9 14  4  0
  9 21  4  0
 10 12  4  0
 10 27  4  0
 11 12  4  0
 11 23  4  0
 13 23  4  0
 13 27  4  0
 14 20  4  0
 15 22  4  0
 16 18  4  0
 16 25  2  0
 16 28  4  0
 21 28  4  0
 24 27  1  0
M  END
$$$$

 Created by Python create_sdf_string function

 28 31  0  0  0  0  0  0  0  0999 V2000
   -1.0054  -13.0622   19.1198 C   0  0  0  0  0  0  0  0  0  0  0  0
    3.1478   -8.5360   28.5161 C   0  0  0  0  0  0  0  0  0  0  0  0
    0.5798   -7.1906   27.9330 C   0  0  0  0  0  0  0  0  0  0  0  0
    0.3978   -5.1561   26.6955 C   0  0  0  0  0  0  0  0  0  0  0  0
    2.3063  -10.0533   30.0125 C   0  0  0  0  0  0  0  0  0  0  0  0
    1.8591   -6.8254   27.4685 N   0  0  0  0  0  0  0  0  0  0  0  0
   -0.2167  -12.1055   18.5568 C   0  0  0  0  0  0  0  0  0  0  0  0
   -2.0661  -10.6994   18.1916 C   0  0  0  0  0  0  0  0  0  0  0  0
    5.2703   -7.5691   27.1123 C   0  0  0  0  0  0  0  0  0  0  0  0
    1.6204   -9.9887   17.2935 C   0  0  0  0  0  0  0  0  0  0  0  0
    1.8931   -7.9265   16.2047 C   0  0  0  0  0  0  0  0  0  0  0  0
    2.4396   -9.0801   16.7132 C   0  0  0  0  0  0  0  0  0  0  0  0
   -0.2575   -8.6234   16.8582 C   0  0  0  0  0  0  0  0  0  0  0  0
    4.0614   -7.0367   27.0106 N   0  0  0  0  0  0  0  0  0  0  0  0
   -2.9133  -11.6279   18.7578 C   0  0  0  0  0  0  0  0  0  0  0  0
    4.5688  -10.1291   29.5758 C   0  0  0  0  0  0  0  0  0  0  0  0
    2.1008   -9.0410   29.1852 N   0  0  0  0  0  0  0  0  0  0  0  0
    3.4829  -10.5697   30.2091 N   0  0  0  0  0  0  0  0  0  0  0  0
   -0.3363   -6.1172   27.5628 C   0  0  0  0  0  0  0  0  0  0  0  0
    3.0331   -7.4400   27.6362 C   0  0  0  0  0  0  0  0  0  0  0  0
    5.4553   -8.5933   27.9644 C   0  0  0  0  0  0  0  0  0  0  0  0
   -2.3870  -12.8440   19.2512 C   0  0  0  0  0  0  0  0  0  0  0  0
    0.5331   -7.6964   16.2751 C   0  0  0  0  0  0  0  0  0  0  0  0
   -0.6740  -10.8737   18.0482 C   0  0  0  0  0  0  0  0  0  0  0  0
    5.6751  -10.5870   29.7637 O   0  0  0  0  0  0  0  0  0  0  0  0
    1.7612   -5.6483   26.7172 C   0  0  0  0  0  0  0  0  0  0  0  0
    0.2221   -9.8326   17.4055 C   0  0  0  0  0  0  0  0  0  0  0  0
    4.3850   -9.0730   28.6745 C   0  0  0  0  0  0  0  0  0  0  0  0
  1  7  4  0
  1 22  4  0
  2 17  4  0
  2 20  4  0
  2 28  4  0
  3  6  1  0
  3 19  1  0
  4 19  1  0
  4 26  1  0
  5 17  4  0
  5 18  4  0
  6 20  1  0
  6 26  1  0
  7 24  4  0
  8 15  4  0
  8 24  4  0
  9 14  4  0
  9 21  4  0
 10 12  4  0
 10 27  4  0
 11 12  4  0
 11 23  4  0
 13 23  4  0
 13 27  4  0
 14 20  4  0
 15 22  4  0
 16 18  4  0
 16 25  2  0
 16 28  4  0
 21 28  4  0
 24 27  1  0
M  END
$$$$

 Created by Python create_sdf_string function

 28 31  0  0  0  0  0  0  0  0999 V2000
   -1.0054  -13.0622   19.1198 C   0  0  0  0  0  0  0  0  0  0  0  0
    3.1478   -8.5360   28.5161 C   0  0  0  0  0  0  0  0  0  0  0  0
    0.5798   -7.1906   27.9330 C   0  0  0  0  0  0  0  0  0  0  0  0
    0.3978   -5.1561   26.6955 C   0  0  0  0  0  0  0  0  0  0  0  0
    2.3063  -10.0533   30.0125 C   0  0  0  0  0  0  0  0  0  0  0  0
    1.8591   -6.8254   27.4685 N   0  0  0  0  0  0  0  0  0  0  0  0
   -0.2167  -12.1055   18.5568 C   0  0  0  0  0  0  0  0  0  0  0  0
   -2.0661  -10.6994   18.1916 C   0  0  0  0  0  0  0  0  0  0  0  0
    5.2703   -7.5691   27.1123 C   0  0  0  0  0  0  0  0  0  0  0  0
    1.6204   -9.9887   17.2935 C   0  0  0  0  0  0  0  0  0  0  0  0
    1.8931   -7.9265   16.2047 C   0  0  0  0  0  0  0  0  0  0  0  0
    2.4396   -9.0801   16.7132 C   0  0  0  0  0  0  0  0  0  0  0  0
   -0.2575   -8.6234   16.8582 C   0  0  0  0  0  0  0  0  0  0  0  0
    4.0614   -7.0367   27.0106 N   0  0  0  0  0  0  0  0  0  0  0  0
   -2.9133  -11.6279   18.7578 C   0  0  0  0  0  0  0  0  0  0  0  0
    4.5688  -10.1291   29.5758 C   0  0  0  0  0  0  0  0  0  0  0  0
    2.1008   -9.0410   29.1852 N   0  0  0  0  0  0  0  0  0  0  0  0
    3.4829  -10.5697   30.2091 N   0  0  0  0  0  0  0  0  0  0  0  0
   -0.3363   -6.1172   27.5628 C   0  0  0  0  0  0  0  0  0  0  0  0
    3.0331   -7.4400   27.6362 C   0  0  0  0  0  0  0  0  0  0  0  0
    5.4553   -8.5933   27.9644 C   0  0  0  0  0  0  0  0  0  0  0  0
   -2.3870  -12.8440   19.2512 C   0  0  0  0  0  0  0  0  0  0  0  0
    0.5331   -7.6964   16.2751 C   0  0  0  0  0  0  0  0  0  0  0  0
   -0.6740  -10.8737   18.0482 C   0  0  0  0  0  0  0  0  0  0  0  0
    5.6751  -10.5870   29.7637 O   0  0  0  0  0  0  0  0  0  0  0  0
    1.7612   -5.6483   26.7172 C   0  0  0  0  0  0  0  0  0  0  0  0
    0.2221   -9.8326   17.4055 C   0  0  0  0  0  0  0  0  0  0  0  0
    4.3850   -9.0730   28.6745 C   0  0  0  0  0  0  0  0  0  0  0  0
  1  7  4  0
  1 22  4  0
  2 17  4  0
  2 20  4  0
  2 28  4  0
  3  6  1  0
  3 19  1  0
  4 19  1  0
  4 26  1  0
  5 17  4  0
  5 18  4  0
  6 20  1  0
  6 26  1  0
  7 24  4  0
  8 15  4  0
  8 24  4  0
  9 14  4  0
  9 21  4  0
 10 12  4  0
 10 27  4  0
 11 12  4  0
 11 23  4  0
 13 23  4  0
 13 27  4  0
 14 20  4  0
 15 22  4  0
 16 18  4  0
 16 25  2  0
 16 28  4  0
 21 28  4  0
 24 27  1  0
M  END
$$$$

 Created by Python create_sdf_string function

 28 31  0  0  0  0  0  0  0  0999 V2000
   -1.0054  -13.0622   19.1198 C   0  0  0  0  0  0  0  0  0  0  0  0
    3.1478   -8.5360   28.5161 C   0  0  0  0  0  0  0  0  0  0  0  0
    0.5798   -7.1906   27.9330 C   0  0  0  0  0  0  0  0  0  0  0  0
    0.3978   -5.1561   26.6955 C   0  0  0  0  0  0  0  0  0  0  0  0
    2.3063  -10.0533   30.0125 C   0  0  0  0  0  0  0  0  0  0  0  0
    1.8591   -6.8254   27.4685 N   0  0  0  0  0  0  0  0  0  0  0  0
   -0.2167  -12.1055   18.5568 C   0  0  0  0  0  0  0  0  0  0  0  0
   -2.0661  -10.6994   18.1916 C   0  0  0  0  0  0  0  0  0  0  0  0
    5.2703   -7.5691   27.1123 C   0  0  0  0  0  0  0  0  0  0  0  0
    1.6204   -9.9887   17.2935 C   0  0  0  0  0  0  0  0  0  0  0  0
    1.8931   -7.9265   16.2047 C   0  0  0  0  0  0  0  0  0  0  0  0
    2.4396   -9.0801   16.7132 C   0  0  0  0  0  0  0  0  0  0  0  0
   -0.2575   -8.6234   16.8582 C   0  0  0  0  0  0  0  0  0  0  0  0
    4.0614   -7.0367   27.0106 N   0  0  0  0  0  0  0  0  0  0  0  0
   -2.9133  -11.6279   18.7578 C   0  0  0  0  0  0  0  0  0  0  0  0
    4.5688  -10.1291   29.5758 C   0  0  0  0  0  0  0  0  0  0  0  0
    2.1008   -9.0410   29.1852 N   0  0  0  0  0  0  0  0  0  0  0  0
    3.4829  -10.5697   30.2091 N   0  0  0  0  0  0  0  0  0  0  0  0
   -0.3363   -6.1172   27.5628 C   0  0  0  0  0  0  0  0  0  0  0  0
    3.0331   -7.4400   27.6362 C   0  0  0  0  0  0  0  0  0  0  0  0
    5.4553   -8.5933   27.9644 C   0  0  0  0  0  0  0  0  0  0  0  0
   -2.3870  -12.8440   19.2512 C   0  0  0  0  0  0  0  0  0  0  0  0
    0.5331   -7.6964   16.2751 C   0  0  0  0  0  0  0  0  0  0  0  0
   -0.6740  -10.8737   18.0482 C   0  0  0  0  0  0  0  0  0  0  0  0
    5.6751  -10.5870   29.7637 O   0  0  0  0  0  0  0  0  0  0  0  0
    1.7612   -5.6483   26.7172 C   0  0  0  0  0  0  0  0  0  0  0  0
    0.2221   -9.8326   17.4055 C   0  0  0  0  0  0  0  0  0  0  0  0
    4.3850   -9.0730   28.6745 C   0  0  0  0  0  0  0  0  0  0  0  0
  1  7  4  0
  1 22  4  0
  2 17  4  0
  2 20  4  0
  2 28  4  0
  3  6  1  0
  3 19  1  0
  4 19  1  0
  4 26  1  0
  5 17  4  0
  5 18  4  0
  6 20  1  0
  6 26  1  0
  7 24  4  0
  8 15  4  0
  8 24  4  0
  9 14  4  0
  9 21  4  0
 10 12  4  0
 10 27  4  0
 11 12  4  0
 11 23  4  0
 13 23  4  0
 13 27  4  0
 14 20  4  0
 15 22  4  0
 16 18  4  0
 16 25  2  0
 16 28  4  0
 21 28  4  0
 24 27  1  0
M  END
$$$$

 Created by Python create_sdf_string function

 28 31  0  0  0  0  0  0  0  0999 V2000
   -1.0054  -13.0622   19.1198 C   0  0  0  0  0  0  0  0  0  0  0  0
    3.1478   -8.5360   28.5161 C   0  0  0  0  0  0  0  0  0  0  0  0
    0.5798   -7.1906   27.9330 C   0  0  0  0  0  0  0  0  0  0  0  0
    0.3978   -5.1561   26.6955 C   0  0  0  0  0  0  0  0  0  0  0  0
    2.3063  -10.0533   30.0125 C   0  0  0  0  0  0  0  0  0  0  0  0
    1.8591   -6.8254   27.4685 N   0  0  0  0  0  0  0  0  0  0  0  0
   -0.2167  -12.1055   18.5568 C   0  0  0  0  0  0  0  0  0  0  0  0
   -2.0661  -10.6994   18.1916 C   0  0  0  0  0  0  0  0  0  0  0  0
    5.2703   -7.5691   27.1123 C   0  0  0  0  0  0  0  0  0  0  0  0
    1.6204   -9.9887   17.2935 C   0  0  0  0  0  0  0  0  0  0  0  0
    1.8931   -7.9265   16.2047 C   0  0  0  0  0  0  0  0  0  0  0  0
    2.4396   -9.0801   16.7132 C   0  0  0  0  0  0  0  0  0  0  0  0
   -0.2575   -8.6234   16.8582 C   0  0  0  0  0  0  0  0  0  0  0  0
    4.0614   -7.0367   27.0106 N   0  0  0  0  0  0  0  0  0  0  0  0
   -2.9133  -11.6279   18.7578 C   0  0  0  0  0  0  0  0  0  0  0  0
    4.5688  -10.1291   29.5758 C   0  0  0  0  0  0  0  0  0  0  0  0
    2.1008   -9.0410   29.1852 N   0  0  0  0  0  0  0  0  0  0  0  0
    3.4829  -10.5697   30.2091 N   0  0  0  0  0  0  0  0  0  0  0  0
   -0.3363   -6.1172   27.5628 C   0  0  0  0  0  0  0  0  0  0  0  0
    3.0331   -7.4400   27.6362 C   0  0  0  0  0  0  0  0  0  0  0  0
    5.4553   -8.5933   27.9644 C   0  0  0  0  0  0  0  0  0  0  0  0
   -2.3870  -12.8440   19.2512 C   0  0  0  0  0  0  0  0  0  0  0  0
    0.5331   -7.6964   16.2751 C   0  0  0  0  0  0  0  0  0  0  0  0
   -0.6740  -10.8737   18.0482 C   0  0  0  0  0  0  0  0  0  0  0  0
    5.6751  -10.5870   29.7637 O   0  0  0  0  0  0  0  0  0  0  0  0
    1.7612   -5.6483   26.7172 C   0  0  0  0  0  0  0  0  0  0  0  0
    0.2221   -9.8326   17.4055 C   0  0  0  0  0  0  0  0  0  0  0  0
    4.3850   -9.0730   28.6745 C   0  0  0  0  0  0  0  0  0  0  0  0
  1  7  4  0
  1 22  4  0
  2 17  4  0
  2 20  4  0
  2 28  4  0
  3  6  1  0
  3 19  1  0
  4 19  1  0
  4 26  1  0
  5 17  4  0
  5 18  4  0
  6 20  1  0
  6 26  1  0
  7 24  4  0
  8 15  4  0
  8 24  4  0
  9 14  4  0
  9 21  4  0
 10 12  4  0
 10 27  4  0
 11 12  4  0
 11 23  4  0
 13 23  4  0
 13 27  4  0
 14 20  4  0
 15 22  4  0
 16 18  4  0
 16 25  2  0
 16 28  4  0
 21 28  4  0
 24 27  1  0
M  END
$$$$

 Created by Python create_sdf_string function

 28 31  0  0  0  0  0  0  0  0999 V2000
   -1.0054  -13.0622   19.1198 C   0  0  0  0  0  0  0  0  0  0  0  0
    3.1478   -8.5360   28.5161 C   0  0  0  0  0  0  0  0  0  0  0  0
    0.5798   -7.1906   27.9330 C   0  0  0  0  0  0  0  0  0  0  0  0
    0.3978   -5.1561   26.6955 C   0  0  0  0  0  0  0  0  0  0  0  0
    2.3063  -10.0533   30.0125 C   0  0  0  0  0  0  0  0  0  0  0  0
    1.8591   -6.8254   27.4685 N   0  0  0  0  0  0  0  0  0  0  0  0
   -0.2167  -12.1055   18.5568 C   0  0  0  0  0  0  0  0  0  0  0  0
   -2.0661  -10.6994   18.1916 C   0  0  0  0  0  0  0  0  0  0  0  0
    5.2703   -7.5691   27.1123 C   0  0  0  0  0  0  0  0  0  0  0  0
    1.6204   -9.9887   17.2935 C   0  0  0  0  0  0  0  0  0  0  0  0
    1.8931   -7.9265   16.2047 C   0  0  0  0  0  0  0  0  0  0  0  0
    2.4396   -9.0801   16.7132 C   0  0  0  0  0  0  0  0  0  0  0  0
   -0.2575   -8.6234   16.8582 C   0  0  0  0  0  0  0  0  0  0  0  0
    4.0614   -7.0367   27.0106 N   0  0  0  0  0  0  0  0  0  0  0  0
   -2.9133  -11.6279   18.7578 C   0  0  0  0  0  0  0  0  0  0  0  0
    4.5688  -10.1291   29.5758 C   0  0  0  0  0  0  0  0  0  0  0  0
    2.1008   -9.0410   29.1852 N   0  0  0  0  0  0  0  0  0  0  0  0
    3.4829  -10.5697   30.2091 N   0  0  0  0  0  0  0  0  0  0  0  0
   -0.3363   -6.1172   27.5628 C   0  0  0  0  0  0  0  0  0  0  0  0
    3.0331   -7.4400   27.6362 C   0  0  0  0  0  0  0  0  0  0  0  0
    5.4553   -8.5933   27.9644 C   0  0  0  0  0  0  0  0  0  0  0  0
   -2.3870  -12.8440   19.2512 C   0  0  0  0  0  0  0  0  0  0  0  0
    0.5331   -7.6964   16.2751 C   0  0  0  0  0  0  0  0  0  0  0  0
   -0.6740  -10.8737   18.0482 C   0  0  0  0  0  0  0  0  0  0  0  0
    5.6751  -10.5870   29.7637 O   0  0  0  0  0  0  0  0  0  0  0  0
    1.7612   -5.6483   26.7172 C   0  0  0  0  0  0  0  0  0  0  0  0
    0.2221   -9.8326   17.4055 C   0  0  0  0  0  0  0  0  0  0  0  0
    4.3850   -9.0730   28.6745 C   0  0  0  0  0  0  0  0  0  0  0  0
  1  7  4  0
  1 22  4  0
  2 17  4  0
  2 20  4  0
  2 28  4  0
  3  6  1  0
  3 19  1  0
  4 19  1  0
  4 26  1  0
  5 17  4  0
  5 18  4  0
  6 20  1  0
  6 26  1  0
  7 24  4  0
  8 15  4  0
  8 24  4  0
  9 14  4  0
  9 21  4  0
 10 12  4  0
 10 27  4  0
 11 12  4  0
 11 23  4  0
 13 23  4  0
 13 27  4  0
 14 20  4  0
 15 22  4  0
 16 18  4  0
 16 25  2  0
 16 28  4  0
 21 28  4  0
 24 27  1  0
M  END
$$$$

 Created by Python create_sdf_string function

 28 31  0  0  0  0  0  0  0  0999 V2000
   -1.0054  -13.0622   19.1198 C   0  0  0  0  0  0  0  0  0  0  0  0
    3.1478   -8.5360   28.5161 C   0  0  0  0  0  0  0  0  0  0  0  0
    0.5798   -7.1906   27.9330 C   0  0  0  0  0  0  0  0  0  0  0  0
    0.3978   -5.1561   26.6955 C   0  0  0  0  0  0  0  0  0  0  0  0
    2.3063  -10.0533   30.0125 C   0  0  0  0  0  0  0  0  0  0  0  0
    1.8591   -6.8254   27.4685 N   0  0  0  0  0  0  0  0  0  0  0  0
   -0.2167  -12.1055   18.5568 C   0  0  0  0  0  0  0  0  0  0  0  0
   -2.0661  -10.6994   18.1916 C   0  0  0  0  0  0  0  0  0  0  0  0
    5.2703   -7.5691   27.1123 C   0  0  0  0  0  0  0  0  0  0  0  0
    1.6204   -9.9887   17.2935 C   0  0  0  0  0  0  0  0  0  0  0  0
    1.8931   -7.9265   16.2047 C   0  0  0  0  0  0  0  0  0  0  0  0
    2.4396   -9.0801   16.7132 C   0  0  0  0  0  0  0  0  0  0  0  0
   -0.2575   -8.6234   16.8582 C   0  0  0  0  0  0  0  0  0  0  0  0
    4.0614   -7.0367   27.0106 N   0  0  0  0  0  0  0  0  0  0  0  0
   -2.9133  -11.6279   18.7578 C   0  0  0  0  0  0  0  0  0  0  0  0
    4.5688  -10.1291   29.5758 C   0  0  0  0  0  0  0  0  0  0  0  0
    2.1008   -9.0410   29.1852 N   0  0  0  0  0  0  0  0  0  0  0  0
    3.4829  -10.5697   30.2091 N   0  0  0  0  0  0  0  0  0  0  0  0
   -0.3363   -6.1172   27.5628 C   0  0  0  0  0  0  0  0  0  0  0  0
    3.0331   -7.4400   27.6362 C   0  0  0  0  0  0  0  0  0  0  0  0
    5.4553   -8.5933   27.9644 C   0  0  0  0  0  0  0  0  0  0  0  0
   -2.3870  -12.8440   19.2512 C   0  0  0  0  0  0  0  0  0  0  0  0
    0.5331   -7.6964   16.2751 C   0  0  0  0  0  0  0  0  0  0  0  0
   -0.6740  -10.8737   18.0482 C   0  0  0  0  0  0  0  0  0  0  0  0
    5.6751  -10.5870   29.7637 O   0  0  0  0  0  0  0  0  0  0  0  0
    1.7612   -5.6483   26.7172 C   0  0  0  0  0  0  0  0  0  0  0  0
    0.2221   -9.8326   17.4055 C   0  0  0  0  0  0  0  0  0  0  0  0
    4.3850   -9.0730   28.6745 C   0  0  0  0  0  0  0  0  0  0  0  0
  1  7  4  0
  1 22  4  0
  2 17  4  0
  2 20  4  0
  2 28  4  0
  3  6  1  0
  3 19  1  0
  4 19  1  0
  4 26  1  0
  5 17  4  0
  5 18  4  0
  6 20  1  0
  6 26  1  0
  7 24  4  0
  8 15  4  0
  8 24  4  0
  9 14  4  0
  9 21  4  0
 10 12  4  0
 10 27  4  0
 11 12  4  0
 11 23  4  0
 13 23  4  0
 13 27  4  0
 14 20  4  0
 15 22  4  0
 16 18  4  0
 16 25  2  0
 16 28  4  0
 21 28  4  0
 24 27  1  0
M  END
$$$$

 Created by Python create_sdf_string function

 28 31  0  0  0  0  0  0  0  0999 V2000
   -1.0054  -13.0622   19.1198 C   0  0  0  0  0  0  0  0  0  0  0  0
    3.1478   -8.5360   28.5161 C   0  0  0  0  0  0  0  0  0  0  0  0
    0.5798   -7.1906   27.9330 C   0  0  0  0  0  0  0  0  0  0  0  0
    0.3978   -5.1561   26.6955 C   0  0  0  0  0  0  0  0  0  0  0  0
    2.3063  -10.0533   30.0125 C   0  0  0  0  0  0  0  0  0  0  0  0
    1.8591   -6.8254   27.4685 N   0  0  0  0  0  0  0  0  0  0  0  0
   -0.2167  -12.1055   18.5568 C   0  0  0  0  0  0  0  0  0  0  0  0
   -2.0661  -10.6994   18.1916 C   0  0  0  0  0  0  0  0  0  0  0  0
    5.2703   -7.5691   27.1123 C   0  0  0  0  0  0  0  0  0  0  0  0
    1.6204   -9.9887   17.2935 C   0  0  0  0  0  0  0  0  0  0  0  0
    1.8931   -7.9265   16.2047 C   0  0  0  0  0  0  0  0  0  0  0  0
    2.4396   -9.0801   16.7132 C   0  0  0  0  0  0  0  0  0  0  0  0
   -0.2575   -8.6234   16.8582 C   0  0  0  0  0  0  0  0  0  0  0  0
    4.0614   -7.0367   27.0106 N   0  0  0  0  0  0  0  0  0  0  0  0
   -2.9133  -11.6279   18.7578 C   0  0  0  0  0  0  0  0  0  0  0  0
    4.5688  -10.1291   29.5758 C   0  0  0  0  0  0  0  0  0  0  0  0
    2.1008   -9.0410   29.1852 N   0  0  0  0  0  0  0  0  0  0  0  0
    3.4829  -10.5697   30.2091 N   0  0  0  0  0  0  0  0  0  0  0  0
   -0.3363   -6.1172   27.5628 C   0  0  0  0  0  0  0  0  0  0  0  0
    3.0331   -7.4400   27.6362 C   0  0  0  0  0  0  0  0  0  0  0  0
    5.4553   -8.5933   27.9644 C   0  0  0  0  0  0  0  0  0  0  0  0
   -2.3870  -12.8440   19.2512 C   0  0  0  0  0  0  0  0  0  0  0  0
    0.5331   -7.6964   16.2751 C   0  0  0  0  0  0  0  0  0  0  0  0
   -0.6740  -10.8737   18.0482 C   0  0  0  0  0  0  0  0  0  0  0  0
    5.6751  -10.5870   29.7637 O   0  0  0  0  0  0  0  0  0  0  0  0
    1.7612   -5.6483   26.7172 C   0  0  0  0  0  0  0  0  0  0  0  0
    0.2221   -9.8326   17.4055 C   0  0  0  0  0  0  0  0  0  0  0  0
    4.3850   -9.0730   28.6745 C   0  0  0  0  0  0  0  0  0  0  0  0
  1  7  4  0
  1 22  4  0
  2 17  4  0
  2 20  4  0
  2 28  4  0
  3  6  1  0
  3 19  1  0
  4 19  1  0
  4 26  1  0
  5 17  4  0
  5 18  4  0
  6 20  1  0
  6 26  1  0
  7 24  4  0
  8 15  4  0
  8 24  4  0
  9 14  4  0
  9 21  4  0
 10 12  4  0
 10 27  4  0
 11 12  4  0
 11 23  4  0
 13 23  4  0
 13 27  4  0
 14 20  4  0
 15 22  4  0
 16 18  4  0
 16 25  2  0
 16 28  4  0
 21 28  4  0
 24 27  1  0
M  END
$$$$

 Created by Python create_sdf_string function

 28 31  0  0  0  0  0  0  0  0999 V2000
   -1.0054  -13.0622   19.1198 C   0  0  0  0  0  0  0  0  0  0  0  0
    3.1478   -8.5360   28.5161 C   0  0  0  0  0  0  0  0  0  0  0  0
    0.5798   -7.1906   27.9330 C   0  0  0  0  0  0  0  0  0  0  0  0
    0.3978   -5.1561   26.6955 C   0  0  0  0  0  0  0  0  0  0  0  0
    2.3063  -10.0533   30.0125 C   0  0  0  0  0  0  0  0  0  0  0  0
    1.8591   -6.8254   27.4685 N   0  0  0  0  0  0  0  0  0  0  0  0
   -0.2167  -12.1055   18.5568 C   0  0  0  0  0  0  0  0  0  0  0  0
   -2.0661  -10.6994   18.1916 C   0  0  0  0  0  0  0  0  0  0  0  0
    5.2703   -7.5691   27.1123 C   0  0  0  0  0  0  0  0  0  0  0  0
    1.6204   -9.9887   17.2935 C   0  0  0  0  0  0  0  0  0  0  0  0
    1.8931   -7.9265   16.2047 C   0  0  0  0  0  0  0  0  0  0  0  0
    2.4396   -9.0801   16.7132 C   0  0  0  0  0  0  0  0  0  0  0  0
   -0.2575   -8.6234   16.8582 C   0  0  0  0  0  0  0  0  0  0  0  0
    4.0614   -7.0367   27.0106 N   0  0  0  0  0  0  0  0  0  0  0  0
   -2.9133  -11.6279   18.7578 C   0  0  0  0  0  0  0  0  0  0  0  0
    4.5688  -10.1291   29.5758 C   0  0  0  0  0  0  0  0  0  0  0  0
    2.1008   -9.0410   29.1852 N   0  0  0  0  0  0  0  0  0  0  0  0
    3.4829  -10.5697   30.2091 N   0  0  0  0  0  0  0  0  0  0  0  0
   -0.3363   -6.1172   27.5628 C   0  0  0  0  0  0  0  0  0  0  0  0
    3.0331   -7.4400   27.6362 C   0  0  0  0  0  0  0  0  0  0  0  0
    5.4553   -8.5933   27.9644 C   0  0  0  0  0  0  0  0  0  0  0  0
   -2.3870  -12.8440   19.2512 C   0  0  0  0  0  0  0  0  0  0  0  0
    0.5331   -7.6964   16.2751 C   0  0  0  0  0  0  0  0  0  0  0  0
   -0.6740  -10.8737   18.0482 C   0  0  0  0  0  0  0  0  0  0  0  0
    5.6751  -10.5870   29.7637 O   0  0  0  0  0  0  0  0  0  0  0  0
    1.7612   -5.6483   26.7172 C   0  0  0  0  0  0  0  0  0  0  0  0
    0.2221   -9.8326   17.4055 C   0  0  0  0  0  0  0  0  0  0  0  0
    4.3850   -9.0730   28.6745 C   0  0  0  0  0  0  0  0  0  0  0  0
  1  7  4  0
  1 22  4  0
  2 17  4  0
  2 20  4  0
  2 28  4  0
  3  6  1  0
  3 19  1  0
  4 19  1  0
  4 26  1  0
  5 17  4  0
  5 18  4  0
  6 20  1  0
  6 26  1  0
  7 24  4  0
  8 15  4  0
  8 24  4  0
  9 14  4  0
  9 21  4  0
 10 12  4  0
 10 27  4  0
 11 12  4  0
 11 23  4  0
 13 23  4  0
 13 27  4  0
 14 20  4  0
 15 22  4  0
 16 18  4  0
 16 25  2  0
 16 28  4  0
 21 28  4  0
 24 27  1  0
M  END
$$$$

 Created by Python create_sdf_string function

 28 31  0  0  0  0  0  0  0  0999 V2000
   -1.0054  -13.0622   19.1198 C   0  0  0  0  0  0  0  0  0  0  0  0
    3.1478   -8.5360   28.5161 C   0  0  0  0  0  0  0  0  0  0  0  0
    0.5798   -7.1906   27.9330 C   0  0  0  0  0  0  0  0  0  0  0  0
    0.3978   -5.1561   26.6955 C   0  0  0  0  0  0  0  0  0  0  0  0
    2.3063  -10.0533   30.0125 C   0  0  0  0  0  0  0  0  0  0  0  0
    1.8591   -6.8254   27.4685 N   0  0  0  0  0  0  0  0  0  0  0  0
   -0.2167  -12.1055   18.5568 C   0  0  0  0  0  0  0  0  0  0  0  0
   -2.0661  -10.6994   18.1916 C   0  0  0  0  0  0  0  0  0  0  0  0
    5.2703   -7.5691   27.1123 C   0  0  0  0  0  0  0  0  0  0  0  0
    1.6204   -9.9887   17.2935 C   0  0  0  0  0  0  0  0  0  0  0  0
    1.8931   -7.9265   16.2047 C   0  0  0  0  0  0  0  0  0  0  0  0
    2.4396   -9.0801   16.7132 C   0  0  0  0  0  0  0  0  0  0  0  0
   -0.2575   -8.6234   16.8582 C   0  0  0  0  0  0  0  0  0  0  0  0
    4.0614   -7.0367   27.0106 N   0  0  0  0  0  0  0  0  0  0  0  0
   -2.9133  -11.6279   18.7578 C   0  0  0  0  0  0  0  0  0  0  0  0
    4.5688  -10.1291   29.5758 C   0  0  0  0  0  0  0  0  0  0  0  0
    2.1008   -9.0410   29.1852 N   0  0  0  0  0  0  0  0  0  0  0  0
    3.4829  -10.5697   30.2091 N   0  0  0  0  0  0  0  0  0  0  0  0
   -0.3363   -6.1172   27.5628 C   0  0  0  0  0  0  0  0  0  0  0  0
    3.0331   -7.4400   27.6362 C   0  0  0  0  0  0  0  0  0  0  0  0
    5.4553   -8.5933   27.9644 C   0  0  0  0  0  0  0  0  0  0  0  0
   -2.3870  -12.8440   19.2512 C   0  0  0  0  0  0  0  0  0  0  0  0
    0.5331   -7.6964   16.2751 C   0  0  0  0  0  0  0  0  0  0  0  0
   -0.6740  -10.8737   18.0482 C   0  0  0  0  0  0  0  0  0  0  0  0
    5.6751  -10.5870   29.7637 O   0  0  0  0  0  0  0  0  0  0  0  0
    1.7612   -5.6483   26.7172 C   0  0  0  0  0  0  0  0  0  0  0  0
    0.2221   -9.8326   17.4055 C   0  0  0  0  0  0  0  0  0  0  0  0
    4.3850   -9.0730   28.6745 C   0  0  0  0  0  0  0  0  0  0  0  0
  1  7  4  0
  1 22  4  0
  2 17  4  0
  2 20  4  0
  2 28  4  0
  3  6  1  0
  3 19  1  0
  4 19  1  0
  4 26  1  0
  5 17  4  0
  5 18  4  0
  6 20  1  0
  6 26  1  0
  7 24  4  0
  8 15  4  0
  8 24  4  0
  9 14  4  0
  9 21  4  0
 10 12  4  0
 10 27  4  0
 11 12  4  0
 11 23  4  0
 13 23  4  0
 13 27  4  0
 14 20  4  0
 15 22  4  0
 16 18  4  0
 16 25  2  0
 16 28  4  0
 21 28  4  0
 24 27  1  0
M  END
$$$$

 Created by Python create_sdf_string function

 28 31  0  0  0  0  0  0  0  0999 V2000
   -1.0054  -13.0622   19.1198 C   0  0  0  0  0  0  0  0  0  0  0  0
    3.1478   -8.5360   28.5161 C   0  0  0  0  0  0  0  0  0  0  0  0
    0.5798   -7.1906   27.9330 C   0  0  0  0  0  0  0  0  0  0  0  0
    0.3978   -5.1561   26.6955 C   0  0  0  0  0  0  0  0  0  0  0  0
    2.3063  -10.0533   30.0125 C   0  0  0  0  0  0  0  0  0  0  0  0
    1.8591   -6.8254   27.4685 N   0  0  0  0  0  0  0  0  0  0  0  0
   -0.2167  -12.1055   18.5568 C   0  0  0  0  0  0  0  0  0  0  0  0
   -2.0661  -10.6994   18.1916 C   0  0  0  0  0  0  0  0  0  0  0  0
    5.2703   -7.5691   27.1123 C   0  0  0  0  0  0  0  0  0  0  0  0
    1.6204   -9.9887   17.2935 C   0  0  0  0  0  0  0  0  0  0  0  0
    1.8931   -7.9265   16.2047 C   0  0  0  0  0  0  0  0  0  0  0  0
    2.4396   -9.0801   16.7132 C   0  0  0  0  0  0  0  0  0  0  0  0
   -0.2575   -8.6234   16.8582 C   0  0  0  0  0  0  0  0  0  0  0  0
    4.0614   -7.0367   27.0106 N   0  0  0  0  0  0  0  0  0  0  0  0
   -2.9133  -11.6279   18.7578 C   0  0  0  0  0  0  0  0  0  0  0  0
    4.5688  -10.1291   29.5758 C   0  0  0  0  0  0  0  0  0  0  0  0
    2.1008   -9.0410   29.1852 N   0  0  0  0  0  0  0  0  0  0  0  0
    3.4829  -10.5697   30.2091 N   0  0  0  0  0  0  0  0  0  0  0  0
   -0.3363   -6.1172   27.5628 C   0  0  0  0  0  0  0  0  0  0  0  0
    3.0331   -7.4400   27.6362 C   0  0  0  0  0  0  0  0  0  0  0  0
    5.4553   -8.5933   27.9644 C   0  0  0  0  0  0  0  0  0  0  0  0
   -2.3870  -12.8440   19.2512 C   0  0  0  0  0  0  0  0  0  0  0  0
    0.5331   -7.6964   16.2751 C   0  0  0  0  0  0  0  0  0  0  0  0
   -0.6740  -10.8737   18.0482 C   0  0  0  0  0  0  0  0  0  0  0  0
    5.6751  -10.5870   29.7637 O   0  0  0  0  0  0  0  0  0  0  0  0
    1.7612   -5.6483   26.7172 C   0  0  0  0  0  0  0  0  0  0  0  0
    0.2221   -9.8326   17.4055 C   0  0  0  0  0  0  0  0  0  0  0  0
    4.3850   -9.0730   28.6745 C   0  0  0  0  0  0  0  0  0  0  0  0
  1  7  4  0
  1 22  4  0
  2 17  4  0
  2 20  4  0
  2 28  4  0
  3  6  1  0
  3 19  1  0
  4 19  1  0
  4 26  1  0
  5 17  4  0
  5 18  4  0
  6 20  1  0
  6 26  1  0
  7 24  4  0
  8 15  4  0
  8 24  4  0
  9 14  4  0
  9 21  4  0
 10 12  4  0
 10 27  4  0
 11 12  4  0
 11 23  4  0
 13 23  4  0
 13 27  4  0
 14 20  4  0
 15 22  4  0
 16 18  4  0
 16 25  2  0
 16 28  4  0
 21 28  4  0
 24 27  1  0
M  END
$$$$

 Created by Python create_sdf_string function

 28 31  0  0  0  0  0  0  0  0999 V2000
   -1.0054  -13.0622   19.1198 C   0  0  0  0  0  0  0  0  0  0  0  0
    3.1478   -8.5360   28.5161 C   0  0  0  0  0  0  0  0  0  0  0  0
    0.5798   -7.1906   27.9330 C   0  0  0  0  0  0  0  0  0  0  0  0
    0.3978   -5.1561   26.6955 C   0  0  0  0  0  0  0  0  0  0  0  0
    2.3063  -10.0533   30.0125 C   0  0  0  0  0  0  0  0  0  0  0  0
    1.8591   -6.8254   27.4685 N   0  0  0  0  0  0  0  0  0  0  0  0
   -0.2167  -12.1055   18.5568 C   0  0  0  0  0  0  0  0  0  0  0  0
   -2.0661  -10.6994   18.1916 C   0  0  0  0  0  0  0  0  0  0  0  0
    5.2703   -7.5691   27.1123 C   0  0  0  0  0  0  0  0  0  0  0  0
    1.6204   -9.9887   17.2935 C   0  0  0  0  0  0  0  0  0  0  0  0
    1.8931   -7.9265   16.2047 C   0  0  0  0  0  0  0  0  0  0  0  0
    2.4396   -9.0801   16.7132 C   0  0  0  0  0  0  0  0  0  0  0  0
   -0.2575   -8.6234   16.8582 C   0  0  0  0  0  0  0  0  0  0  0  0
    4.0614   -7.0367   27.0106 N   0  0  0  0  0  0  0  0  0  0  0  0
   -2.9133  -11.6279   18.7578 C   0  0  0  0  0  0  0  0  0  0  0  0
    4.5688  -10.1291   29.5758 C   0  0  0  0  0  0  0  0  0  0  0  0
    2.1008   -9.0410   29.1852 N   0  0  0  0  0  0  0  0  0  0  0  0
    3.4829  -10.5697   30.2091 N   0  0  0  0  0  0  0  0  0  0  0  0
   -0.3363   -6.1172   27.5628 C   0  0  0  0  0  0  0  0  0  0  0  0
    3.0331   -7.4400   27.6362 C   0  0  0  0  0  0  0  0  0  0  0  0
    5.4553   -8.5933   27.9644 C   0  0  0  0  0  0  0  0  0  0  0  0
   -2.3870  -12.8440   19.2512 C   0  0  0  0  0  0  0  0  0  0  0  0
    0.5331   -7.6964   16.2751 C   0  0  0  0  0  0  0  0  0  0  0  0
   -0.6740  -10.8737   18.0482 C   0  0  0  0  0  0  0  0  0  0  0  0
    5.6751  -10.5870   29.7637 O   0  0  0  0  0  0  0  0  0  0  0  0
    1.7612   -5.6483   26.7172 C   0  0  0  0  0  0  0  0  0  0  0  0
    0.2221   -9.8326   17.4055 C   0  0  0  0  0  0  0  0  0  0  0  0
    4.3850   -9.0730   28.6745 C   0  0  0  0  0  0  0  0  0  0  0  0
  1  7  4  0
  1 22  4  0
  2 17  4  0
  2 20  4  0
  2 28  4  0
  3  6  1  0
  3 19  1  0
  4 19  1  0
  4 26  1  0
  5 17  4  0
  5 18  4  0
  6 20  1  0
  6 26  1  0
  7 24  4  0
  8 15  4  0
  8 24  4  0
  9 14  4  0
  9 21  4  0
 10 12  4  0
 10 27  4  0
 11 12  4  0
 11 23  4  0
 13 23  4  0
 13 27  4  0
 14 20  4  0
 15 22  4  0
 16 18  4  0
 16 25  2  0
 16 28  4  0
 21 28  4  0
 24 27  1  0
M  END
$$$$

 Created by Python create_sdf_string function

 28 31  0  0  0  0  0  0  0  0999 V2000
   -1.0054  -13.0622   19.1198 C   0  0  0  0  0  0  0  0  0  0  0  0
    3.1478   -8.5360   28.5161 C   0  0  0  0  0  0  0  0  0  0  0  0
    0.5798   -7.1906   27.9330 C   0  0  0  0  0  0  0  0  0  0  0  0
    0.3978   -5.1561   26.6955 C   0  0  0  0  0  0  0  0  0  0  0  0
    2.3063  -10.0533   30.0125 C   0  0  0  0  0  0  0  0  0  0  0  0
    1.8591   -6.8254   27.4685 N   0  0  0  0  0  0  0  0  0  0  0  0
   -0.2167  -12.1055   18.5568 C   0  0  0  0  0  0  0  0  0  0  0  0
   -2.0661  -10.6994   18.1916 C   0  0  0  0  0  0  0  0  0  0  0  0
    5.2703   -7.5691   27.1123 C   0  0  0  0  0  0  0  0  0  0  0  0
    1.6204   -9.9887   17.2935 C   0  0  0  0  0  0  0  0  0  0  0  0
    1.8931   -7.9265   16.2047 C   0  0  0  0  0  0  0  0  0  0  0  0
    2.4396   -9.0801   16.7132 C   0  0  0  0  0  0  0  0  0  0  0  0
   -0.2575   -8.6234   16.8582 C   0  0  0  0  0  0  0  0  0  0  0  0
    4.0614   -7.0367   27.0106 N   0  0  0  0  0  0  0  0  0  0  0  0
   -2.9133  -11.6279   18.7578 C   0  0  0  0  0  0  0  0  0  0  0  0
    4.5688  -10.1291   29.5758 C   0  0  0  0  0  0  0  0  0  0  0  0
    2.1008   -9.0410   29.1852 N   0  0  0  0  0  0  0  0  0  0  0  0
    3.4829  -10.5697   30.2091 N   0  0  0  0  0  0  0  0  0  0  0  0
   -0.3363   -6.1172   27.5628 C   0  0  0  0  0  0  0  0  0  0  0  0
    3.0331   -7.4400   27.6362 C   0  0  0  0  0  0  0  0  0  0  0  0
    5.4553   -8.5933   27.9644 C   0  0  0  0  0  0  0  0  0  0  0  0
   -2.3870  -12.8440   19.2512 C   0  0  0  0  0  0  0  0  0  0  0  0
    0.5331   -7.6964   16.2751 C   0  0  0  0  0  0  0  0  0  0  0  0
   -0.6740  -10.8737   18.0482 C   0  0  0  0  0  0  0  0  0  0  0  0
    5.6751  -10.5870   29.7637 O   0  0  0  0  0  0  0  0  0  0  0  0
    1.7612   -5.6483   26.7172 C   0  0  0  0  0  0  0  0  0  0  0  0
    0.2221   -9.8326   17.4055 C   0  0  0  0  0  0  0  0  0  0  0  0
    4.3850   -9.0730   28.6745 C   0  0  0  0  0  0  0  0  0  0  0  0
  1  7  4  0
  1 22  4  0
  2 17  4  0
  2 20  4  0
  2 28  4  0
  3  6  1  0
  3 19  1  0
  4 19  1  0
  4 26  1  0
  5 17  4  0
  5 18  4  0
  6 20  1  0
  6 26  1  0
  7 24  4  0
  8 15  4  0
  8 24  4  0
  9 14  4  0
  9 21  4  0
 10 12  4  0
 10 27  4  0
 11 12  4  0
 11 23  4  0
 13 23  4  0
 13 27  4  0
 14 20  4  0
 15 22  4  0
 16 18  4  0
 16 25  2  0
 16 28  4  0
 21 28  4  0
 24 27  1  0
M  END
$$$$

 Created by Python create_sdf_string function

 28 31  0  0  0  0  0  0  0  0999 V2000
   -1.0054  -13.0622   19.1198 C   0  0  0  0  0  0  0  0  0  0  0  0
    3.1478   -8.5360   28.5161 C   0  0  0  0  0  0  0  0  0  0  0  0
    0.5798   -7.1906   27.9330 C   0  0  0  0  0  0  0  0  0  0  0  0
    0.3978   -5.1561   26.6955 C   0  0  0  0  0  0  0  0  0  0  0  0
    2.3063  -10.0533   30.0125 C   0  0  0  0  0  0  0  0  0  0  0  0
    1.8591   -6.8254   27.4685 N   0  0  0  0  0  0  0  0  0  0  0  0
   -0.2167  -12.1055   18.5568 C   0  0  0  0  0  0  0  0  0  0  0  0
   -2.0661  -10.6994   18.1916 C   0  0  0  0  0  0  0  0  0  0  0  0
    5.2703   -7.5691   27.1123 C   0  0  0  0  0  0  0  0  0  0  0  0
    1.6204   -9.9887   17.2935 C   0  0  0  0  0  0  0  0  0  0  0  0
    1.8931   -7.9265   16.2047 C   0  0  0  0  0  0  0  0  0  0  0  0
    2.4396   -9.0801   16.7132 C   0  0  0  0  0  0  0  0  0  0  0  0
   -0.2575   -8.6234   16.8582 C   0  0  0  0  0  0  0  0  0  0  0  0
    4.0614   -7.0367   27.0106 N   0  0  0  0  0  0  0  0  0  0  0  0
   -2.9133  -11.6279   18.7578 C   0  0  0  0  0  0  0  0  0  0  0  0
    4.5688  -10.1291   29.5758 C   0  0  0  0  0  0  0  0  0  0  0  0
    2.1008   -9.0410   29.1852 N   0  0  0  0  0  0  0  0  0  0  0  0
    3.4829  -10.5697   30.2091 N   0  0  0  0  0  0  0  0  0  0  0  0
   -0.3363   -6.1172   27.5628 C   0  0  0  0  0  0  0  0  0  0  0  0
    3.0331   -7.4400   27.6362 C   0  0  0  0  0  0  0  0  0  0  0  0
    5.4553   -8.5933   27.9644 C   0  0  0  0  0  0  0  0  0  0  0  0
   -2.3870  -12.8440   19.2512 C   0  0  0  0  0  0  0  0  0  0  0  0
    0.5331   -7.6964   16.2751 C   0  0  0  0  0  0  0  0  0  0  0  0
   -0.6740  -10.8737   18.0482 C   0  0  0  0  0  0  0  0  0  0  0  0
    5.6751  -10.5870   29.7637 O   0  0  0  0  0  0  0  0  0  0  0  0
    1.7612   -5.6483   26.7172 C   0  0  0  0  0  0  0  0  0  0  0  0
    0.2221   -9.8326   17.4055 C   0  0  0  0  0  0  0  0  0  0  0  0
    4.3850   -9.0730   28.6745 C   0  0  0  0  0  0  0  0  0  0  0  0
  1  7  4  0
  1 22  4  0
  2 17  4  0
  2 20  4  0
  2 28  4  0
  3  6  1  0
  3 19  1  0
  4 19  1  0
  4 26  1  0
  5 17  4  0
  5 18  4  0
  6 20  1  0
  6 26  1  0
  7 24  4  0
  8 15  4  0
  8 24  4  0
  9 14  4  0
  9 21  4  0
 10 12  4  0
 10 27  4  0
 11 12  4  0
 11 23  4  0
 13 23  4  0
 13 27  4  0
 14 20  4  0
 15 22  4  0
 16 18  4  0
 16 25  2  0
 16 28  4  0
 21 28  4  0
 24 27  1  0
M  END
$$$$

 Created by Python create_sdf_string function

 28 31  0  0  0  0  0  0  0  0999 V2000
   -1.0054  -13.0622   19.1198 C   0  0  0  0  0  0  0  0  0  0  0  0
    3.1478   -8.5360   28.5161 C   0  0  0  0  0  0  0  0  0  0  0  0
    0.5798   -7.1906   27.9330 C   0  0  0  0  0  0  0  0  0  0  0  0
    0.3978   -5.1561   26.6955 C   0  0  0  0  0  0  0  0  0  0  0  0
    2.3063  -10.0533   30.0125 C   0  0  0  0  0  0  0  0  0  0  0  0
    1.8591   -6.8254   27.4685 N   0  0  0  0  0  0  0  0  0  0  0  0
   -0.2167  -12.1055   18.5568 C   0  0  0  0  0  0  0  0  0  0  0  0
   -2.0661  -10.6994   18.1916 C   0  0  0  0  0  0  0  0  0  0  0  0
    5.2703   -7.5691   27.1123 C   0  0  0  0  0  0  0  0  0  0  0  0
    1.6204   -9.9887   17.2935 C   0  0  0  0  0  0  0  0  0  0  0  0
    1.8931   -7.9265   16.2047 C   0  0  0  0  0  0  0  0  0  0  0  0
    2.4396   -9.0801   16.7132 C   0  0  0  0  0  0  0  0  0  0  0  0
   -0.2575   -8.6234   16.8582 C   0  0  0  0  0  0  0  0  0  0  0  0
    4.0614   -7.0367   27.0106 N   0  0  0  0  0  0  0  0  0  0  0  0
   -2.9133  -11.6279   18.7578 C   0  0  0  0  0  0  0  0  0  0  0  0
    4.5688  -10.1291   29.5758 C   0  0  0  0  0  0  0  0  0  0  0  0
    2.1008   -9.0410   29.1852 N   0  0  0  0  0  0  0  0  0  0  0  0
    3.4829  -10.5697   30.2091 N   0  0  0  0  0  0  0  0  0  0  0  0
   -0.3363   -6.1172   27.5628 C   0  0  0  0  0  0  0  0  0  0  0  0
    3.0331   -7.4400   27.6362 C   0  0  0  0  0  0  0  0  0  0  0  0
    5.4553   -8.5933   27.9644 C   0  0  0  0  0  0  0  0  0  0  0  0
   -2.3870  -12.8440   19.2512 C   0  0  0  0  0  0  0  0  0  0  0  0
    0.5331   -7.6964   16.2751 C   0  0  0  0  0  0  0  0  0  0  0  0
   -0.6740  -10.8737   18.0482 C   0  0  0  0  0  0  0  0  0  0  0  0
    5.6751  -10.5870   29.7637 O   0  0  0  0  0  0  0  0  0  0  0  0
    1.7612   -5.6483   26.7172 C   0  0  0  0  0  0  0  0  0  0  0  0
    0.2221   -9.8326   17.4055 C   0  0  0  0  0  0  0  0  0  0  0  0
    4.3850   -9.0730   28.6745 C   0  0  0  0  0  0  0  0  0  0  0  0
  1  7  4  0
  1 22  4  0
  2 17  4  0
  2 20  4  0
  2 28  4  0
  3  6  1  0
  3 19  1  0
  4 19  1  0
  4 26  1  0
  5 17  4  0
  5 18  4  0
  6 20  1  0
  6 26  1  0
  7 24  4  0
  8 15  4  0
  8 24  4  0
  9 14  4  0
  9 21  4  0
 10 12  4  0
 10 27  4  0
 11 12  4  0
 11 23  4  0
 13 23  4  0
 13 27  4  0
 14 20  4  0
 15 22  4  0
 16 18  4  0
 16 25  2  0
 16 28  4  0
 21 28  4  0
 24 27  1  0
M  END
$$$$

 Created by Python create_sdf_string function

 28 31  0  0  0  0  0  0  0  0999 V2000
   -1.0054  -13.0622   19.1198 C   0  0  0  0  0  0  0  0  0  0  0  0
    3.1478   -8.5360   28.5161 C   0  0  0  0  0  0  0  0  0  0  0  0
    0.5798   -7.1906   27.9330 C   0  0  0  0  0  0  0  0  0  0  0  0
    0.3978   -5.1561   26.6955 C   0  0  0  0  0  0  0  0  0  0  0  0
    2.3063  -10.0533   30.0125 C   0  0  0  0  0  0  0  0  0  0  0  0
    1.8591   -6.8254   27.4685 N   0  0  0  0  0  0  0  0  0  0  0  0
   -0.2167  -12.1055   18.5568 C   0  0  0  0  0  0  0  0  0  0  0  0
   -2.0661  -10.6994   18.1916 C   0  0  0  0  0  0  0  0  0  0  0  0
    5.2703   -7.5691   27.1123 C   0  0  0  0  0  0  0  0  0  0  0  0
    1.6204   -9.9887   17.2935 C   0  0  0  0  0  0  0  0  0  0  0  0
    1.8931   -7.9265   16.2047 C   0  0  0  0  0  0  0  0  0  0  0  0
    2.4396   -9.0801   16.7132 C   0  0  0  0  0  0  0  0  0  0  0  0
   -0.2575   -8.6234   16.8582 C   0  0  0  0  0  0  0  0  0  0  0  0
    4.0614   -7.0367   27.0106 N   0  0  0  0  0  0  0  0  0  0  0  0
   -2.9133  -11.6279   18.7578 C   0  0  0  0  0  0  0  0  0  0  0  0
    4.5688  -10.1291   29.5758 C   0  0  0  0  0  0  0  0  0  0  0  0
    2.1008   -9.0410   29.1852 N   0  0  0  0  0  0  0  0  0  0  0  0
    3.4829  -10.5697   30.2091 N   0  0  0  0  0  0  0  0  0  0  0  0
   -0.3363   -6.1172   27.5628 C   0  0  0  0  0  0  0  0  0  0  0  0
    3.0331   -7.4400   27.6362 C   0  0  0  0  0  0  0  0  0  0  0  0
    5.4553   -8.5933   27.9644 C   0  0  0  0  0  0  0  0  0  0  0  0
   -2.3870  -12.8440   19.2512 C   0  0  0  0  0  0  0  0  0  0  0  0
    0.5331   -7.6964   16.2751 C   0  0  0  0  0  0  0  0  0  0  0  0
   -0.6740  -10.8737   18.0482 C   0  0  0  0  0  0  0  0  0  0  0  0
    5.6751  -10.5870   29.7637 O   0  0  0  0  0  0  0  0  0  0  0  0
    1.7612   -5.6483   26.7172 C   0  0  0  0  0  0  0  0  0  0  0  0
    0.2221   -9.8326   17.4055 C   0  0  0  0  0  0  0  0  0  0  0  0
    4.3850   -9.0730   28.6745 C   0  0  0  0  0  0  0  0  0  0  0  0
  1  7  4  0
  1 22  4  0
  2 17  4  0
  2 20  4  0
  2 28  4  0
  3  6  1  0
  3 19  1  0
  4 19  1  0
  4 26  1  0
  5 17  4  0
  5 18  4  0
  6 20  1  0
  6 26  1  0
  7 24  4  0
  8 15  4  0
  8 24  4  0
  9 14  4  0
  9 21  4  0
 10 12  4  0
 10 27  4  0
 11 12  4  0
 11 23  4  0
 13 23  4  0
 13 27  4  0
 14 20  4  0
 15 22  4  0
 16 18  4  0
 16 25  2  0
 16 28  4  0
 21 28  4  0
 24 27  1  0
M  END
$$$$

 Created by Python create_sdf_string function

 28 31  0  0  0  0  0  0  0  0999 V2000
   -1.0054  -13.0622   19.1198 C   0  0  0  0  0  0  0  0  0  0  0  0
    3.1478   -8.5360   28.5161 C   0  0  0  0  0  0  0  0  0  0  0  0
    0.5798   -7.1906   27.9330 C   0  0  0  0  0  0  0  0  0  0  0  0
    0.3978   -5.1561   26.6955 C   0  0  0  0  0  0  0  0  0  0  0  0
    2.3063  -10.0533   30.0125 C   0  0  0  0  0  0  0  0  0  0  0  0
    1.8591   -6.8254   27.4685 N   0  0  0  0  0  0  0  0  0  0  0  0
   -0.2167  -12.1055   18.5568 C   0  0  0  0  0  0  0  0  0  0  0  0
   -2.0661  -10.6994   18.1916 C   0  0  0  0  0  0  0  0  0  0  0  0
    5.2703   -7.5691   27.1123 C   0  0  0  0  0  0  0  0  0  0  0  0
    1.6204   -9.9887   17.2935 C   0  0  0  0  0  0  0  0  0  0  0  0
    1.8931   -7.9265   16.2047 C   0  0  0  0  0  0  0  0  0  0  0  0
    2.4396   -9.0801   16.7132 C   0  0  0  0  0  0  0  0  0  0  0  0
   -0.2575   -8.6234   16.8582 C   0  0  0  0  0  0  0  0  0  0  0  0
    4.0614   -7.0367   27.0106 N   0  0  0  0  0  0  0  0  0  0  0  0
   -2.9133  -11.6279   18.7578 C   0  0  0  0  0  0  0  0  0  0  0  0
    4.5688  -10.1291   29.5758 C   0  0  0  0  0  0  0  0  0  0  0  0
    2.1008   -9.0410   29.1852 N   0  0  0  0  0  0  0  0  0  0  0  0
    3.4829  -10.5697   30.2091 N   0  0  0  0  0  0  0  0  0  0  0  0
   -0.3363   -6.1172   27.5628 C   0  0  0  0  0  0  0  0  0  0  0  0
    3.0331   -7.4400   27.6362 C   0  0  0  0  0  0  0  0  0  0  0  0
    5.4553   -8.5933   27.9644 C   0  0  0  0  0  0  0  0  0  0  0  0
   -2.3870  -12.8440   19.2512 C   0  0  0  0  0  0  0  0  0  0  0  0
    0.5331   -7.6964   16.2751 C   0  0  0  0  0  0  0  0  0  0  0  0
   -0.6740  -10.8737   18.0482 C   0  0  0  0  0  0  0  0  0  0  0  0
    5.6751  -10.5870   29.7637 O   0  0  0  0  0  0  0  0  0  0  0  0
    1.7612   -5.6483   26.7172 C   0  0  0  0  0  0  0  0  0  0  0  0
    0.2221   -9.8326   17.4055 C   0  0  0  0  0  0  0  0  0  0  0  0
    4.3850   -9.0730   28.6745 C   0  0  0  0  0  0  0  0  0  0  0  0
  1  7  4  0
  1 22  4  0
  2 17  4  0
  2 20  4  0
  2 28  4  0
  3  6  1  0
  3 19  1  0
  4 19  1  0
  4 26  1  0
  5 17  4  0
  5 18  4  0
  6 20  1  0
  6 26  1  0
  7 24  4  0
  8 15  4  0
  8 24  4  0
  9 14  4  0
  9 21  4  0
 10 12  4  0
 10 27  4  0
 11 12  4  0
 11 23  4  0
 13 23  4  0
 13 27  4  0
 14 20  4  0
 15 22  4  0
 16 18  4  0
 16 25  2  0
 16 28  4  0
 21 28  4  0
 24 27  1  0
M  END
$$$$

 Created by Python create_sdf_string function

 28 31  0  0  0  0  0  0  0  0999 V2000
   -1.0054  -13.0622   19.1198 C   0  0  0  0  0  0  0  0  0  0  0  0
    3.1478   -8.5360   28.5161 C   0  0  0  0  0  0  0  0  0  0  0  0
    0.5798   -7.1906   27.9330 C   0  0  0  0  0  0  0  0  0  0  0  0
    0.3978   -5.1561   26.6955 C   0  0  0  0  0  0  0  0  0  0  0  0
    2.3063  -10.0533   30.0125 C   0  0  0  0  0  0  0  0  0  0  0  0
    1.8591   -6.8254   27.4685 N   0  0  0  0  0  0  0  0  0  0  0  0
   -0.2167  -12.1055   18.5568 C   0  0  0  0  0  0  0  0  0  0  0  0
   -2.0661  -10.6994   18.1916 C   0  0  0  0  0  0  0  0  0  0  0  0
    5.2703   -7.5691   27.1123 C   0  0  0  0  0  0  0  0  0  0  0  0
    1.6204   -9.9887   17.2935 C   0  0  0  0  0  0  0  0  0  0  0  0
    1.8931   -7.9265   16.2047 C   0  0  0  0  0  0  0  0  0  0  0  0
    2.4396   -9.0801   16.7132 C   0  0  0  0  0  0  0  0  0  0  0  0
   -0.2575   -8.6234   16.8582 C   0  0  0  0  0  0  0  0  0  0  0  0
    4.0614   -7.0367   27.0106 N   0  0  0  0  0  0  0  0  0  0  0  0
   -2.9133  -11.6279   18.7578 C   0  0  0  0  0  0  0  0  0  0  0  0
    4.5688  -10.1291   29.5758 C   0  0  0  0  0  0  0  0  0  0  0  0
    2.1008   -9.0410   29.1852 N   0  0  0  0  0  0  0  0  0  0  0  0
    3.4829  -10.5697   30.2091 N   0  0  0  0  0  0  0  0  0  0  0  0
   -0.3363   -6.1172   27.5628 C   0  0  0  0  0  0  0  0  0  0  0  0
    3.0331   -7.4400   27.6362 C   0  0  0  0  0  0  0  0  0  0  0  0
    5.4553   -8.5933   27.9644 C   0  0  0  0  0  0  0  0  0  0  0  0
   -2.3870  -12.8440   19.2512 C   0  0  0  0  0  0  0  0  0  0  0  0
    0.5331   -7.6964   16.2751 C   0  0  0  0  0  0  0  0  0  0  0  0
   -0.6740  -10.8737   18.0482 C   0  0  0  0  0  0  0  0  0  0  0  0
    5.6751  -10.5870   29.7637 O   0  0  0  0  0  0  0  0  0  0  0  0
    1.7612   -5.6483   26.7172 C   0  0  0  0  0  0  0  0  0  0  0  0
    0.2221   -9.8326   17.4055 C   0  0  0  0  0  0  0  0  0  0  0  0
    4.3850   -9.0730   28.6745 C   0  0  0  0  0  0  0  0  0  0  0  0
  1  7  4  0
  1 22  4  0
  2 17  4  0
  2 20  4  0
  2 28  4  0
  3  6  1  0
  3 19  1  0
  4 19  1  0
  4 26  1  0
  5 17  4  0
  5 18  4  0
  6 20  1  0
  6 26  1  0
  7 24  4  0
  8 15  4  0
  8 24  4  0
  9 14  4  0
  9 21  4  0
 10 12  4  0
 10 27  4  0
 11 12  4  0
 11 23  4  0
 13 23  4  0
 13 27  4  0
 14 20  4  0
 15 22  4  0
 16 18  4  0
 16 25  2  0
 16 28  4  0
 21 28  4  0
 24 27  1  0
M  END
$$$$

 Created by Python create_sdf_string function

 28 31  0  0  0  0  0  0  0  0999 V2000
   -1.0054  -13.0622   19.1198 C   0  0  0  0  0  0  0  0  0  0  0  0
    3.1478   -8.5360   28.5161 C   0  0  0  0  0  0  0  0  0  0  0  0
    0.5798   -7.1906   27.9330 C   0  0  0  0  0  0  0  0  0  0  0  0
    0.3978   -5.1561   26.6955 C   0  0  0  0  0  0  0  0  0  0  0  0
    2.3063  -10.0533   30.0125 C   0  0  0  0  0  0  0  0  0  0  0  0
    1.8591   -6.8254   27.4685 N   0  0  0  0  0  0  0  0  0  0  0  0
   -0.2167  -12.1055   18.5568 C   0  0  0  0  0  0  0  0  0  0  0  0
   -2.0661  -10.6994   18.1916 C   0  0  0  0  0  0  0  0  0  0  0  0
    5.2703   -7.5691   27.1123 C   0  0  0  0  0  0  0  0  0  0  0  0
    1.6204   -9.9887   17.2935 C   0  0  0  0  0  0  0  0  0  0  0  0
    1.8931   -7.9265   16.2047 C   0  0  0  0  0  0  0  0  0  0  0  0
    2.4396   -9.0801   16.7132 C   0  0  0  0  0  0  0  0  0  0  0  0
   -0.2575   -8.6234   16.8582 C   0  0  0  0  0  0  0  0  0  0  0  0
    4.0614   -7.0367   27.0106 N   0  0  0  0  0  0  0  0  0  0  0  0
   -2.9133  -11.6279   18.7578 C   0  0  0  0  0  0  0  0  0  0  0  0
    4.5688  -10.1291   29.5758 C   0  0  0  0  0  0  0  0  0  0  0  0
    2.1008   -9.0410   29.1852 N   0  0  0  0  0  0  0  0  0  0  0  0
    3.4829  -10.5697   30.2091 N   0  0  0  0  0  0  0  0  0  0  0  0
   -0.3363   -6.1172   27.5628 C   0  0  0  0  0  0  0  0  0  0  0  0
    3.0331   -7.4400   27.6362 C   0  0  0  0  0  0  0  0  0  0  0  0
    5.4553   -8.5933   27.9644 C   0  0  0  0  0  0  0  0  0  0  0  0
   -2.3870  -12.8440   19.2512 C   0  0  0  0  0  0  0  0  0  0  0  0
    0.5331   -7.6964   16.2751 C   0  0  0  0  0  0  0  0  0  0  0  0
   -0.6740  -10.8737   18.0482 C   0  0  0  0  0  0  0  0  0  0  0  0
    5.6751  -10.5870   29.7637 O   0  0  0  0  0  0  0  0  0  0  0  0
    1.7612   -5.6483   26.7172 C   0  0  0  0  0  0  0  0  0  0  0  0
    0.2221   -9.8326   17.4055 C   0  0  0  0  0  0  0  0  0  0  0  0
    4.3850   -9.0730   28.6745 C   0  0  0  0  0  0  0  0  0  0  0  0
  1  7  4  0
  1 22  4  0
  2 17  4  0
  2 20  4  0
  2 28  4  0
  3  6  1  0
  3 19  1  0
  4 19  1  0
  4 26  1  0
  5 17  4  0
  5 18  4  0
  6 20  1  0
  6 26  1  0
  7 24  4  0
  8 15  4  0
  8 24  4  0
  9 14  4  0
  9 21  4  0
 10 12  4  0
 10 27  4  0
 11 12  4  0
 11 23  4  0
 13 23  4  0
 13 27  4  0
 14 20  4  0
 15 22  4  0
 16 18  4  0
 16 25  2  0
 16 28  4  0
 21 28  4  0
 24 27  1  0
M  END
$$$$

 Created by Python create_sdf_string function

 28 31  0  0  0  0  0  0  0  0999 V2000
   -1.0054  -13.0622   19.1198 C   0  0  0  0  0  0  0  0  0  0  0  0
    3.1478   -8.5360   28.5161 C   0  0  0  0  0  0  0  0  0  0  0  0
    0.5798   -7.1906   27.9330 C   0  0  0  0  0  0  0  0  0  0  0  0
    0.3978   -5.1561   26.6955 C   0  0  0  0  0  0  0  0  0  0  0  0
    2.3063  -10.0533   30.0125 C   0  0  0  0  0  0  0  0  0  0  0  0
    1.8591   -6.8254   27.4685 N   0  0  0  0  0  0  0  0  0  0  0  0
   -0.2167  -12.1055   18.5568 C   0  0  0  0  0  0  0  0  0  0  0  0
   -2.0661  -10.6994   18.1916 C   0  0  0  0  0  0  0  0  0  0  0  0
    5.2703   -7.5691   27.1123 C   0  0  0  0  0  0  0  0  0  0  0  0
    1.6204   -9.9887   17.2935 C   0  0  0  0  0  0  0  0  0  0  0  0
    1.8931   -7.9265   16.2047 C   0  0  0  0  0  0  0  0  0  0  0  0
    2.4396   -9.0801   16.7132 C   0  0  0  0  0  0  0  0  0  0  0  0
   -0.2575   -8.6234   16.8582 C   0  0  0  0  0  0  0  0  0  0  0  0
    4.0614   -7.0367   27.0106 N   0  0  0  0  0  0  0  0  0  0  0  0
   -2.9133  -11.6279   18.7578 C   0  0  0  0  0  0  0  0  0  0  0  0
    4.5688  -10.1291   29.5758 C   0  0  0  0  0  0  0  0  0  0  0  0
    2.1008   -9.0410   29.1852 N   0  0  0  0  0  0  0  0  0  0  0  0
    3.4829  -10.5697   30.2091 N   0  0  0  0  0  0  0  0  0  0  0  0
   -0.3363   -6.1172   27.5628 C   0  0  0  0  0  0  0  0  0  0  0  0
    3.0331   -7.4400   27.6362 C   0  0  0  0  0  0  0  0  0  0  0  0
    5.4553   -8.5933   27.9644 C   0  0  0  0  0  0  0  0  0  0  0  0
   -2.3870  -12.8440   19.2512 C   0  0  0  0  0  0  0  0  0  0  0  0
    0.5331   -7.6964   16.2751 C   0  0  0  0  0  0  0  0  0  0  0  0
   -0.6740  -10.8737   18.0482 C   0  0  0  0  0  0  0  0  0  0  0  0
    5.6751  -10.5870   29.7637 O   0  0  0  0  0  0  0  0  0  0  0  0
    1.7612   -5.6483   26.7172 C   0  0  0  0  0  0  0  0  0  0  0  0
    0.2221   -9.8326   17.4055 C   0  0  0  0  0  0  0  0  0  0  0  0
    4.3850   -9.0730   28.6745 C   0  0  0  0  0  0  0  0  0  0  0  0
  1  7  4  0
  1 22  4  0
  2 17  4  0
  2 20  4  0
  2 28  4  0
  3  6  1  0
  3 19  1  0
  4 19  1  0
  4 26  1  0
  5 17  4  0
  5 18  4  0
  6 20  1  0
  6 26  1  0
  7 24  4  0
  8 15  4  0
  8 24  4  0
  9 14  4  0
  9 21  4  0
 10 12  4  0
 10 27  4  0
 11 12  4  0
 11 23  4  0
 13 23  4  0
 13 27  4  0
 14 20  4  0
 15 22  4  0
 16 18  4  0
 16 25  2  0
 16 28  4  0
 21 28  4  0
 24 27  1  0
M  END
$$$$

 Created by Python create_sdf_string function

 28 31  0  0  0  0  0  0  0  0999 V2000
   -1.0054  -13.0622   19.1198 C   0  0  0  0  0  0  0  0  0  0  0  0
    3.1478   -8.5360   28.5161 C   0  0  0  0  0  0  0  0  0  0  0  0
    0.5798   -7.1906   27.9330 C   0  0  0  0  0  0  0  0  0  0  0  0
    0.3978   -5.1561   26.6955 C   0  0  0  0  0  0  0  0  0  0  0  0
    2.3063  -10.0533   30.0125 C   0  0  0  0  0  0  0  0  0  0  0  0
    1.8591   -6.8254   27.4685 N   0  0  0  0  0  0  0  0  0  0  0  0
   -0.2167  -12.1055   18.5568 C   0  0  0  0  0  0  0  0  0  0  0  0
   -2.0661  -10.6994   18.1916 C   0  0  0  0  0  0  0  0  0  0  0  0
    5.2703   -7.5691   27.1123 C   0  0  0  0  0  0  0  0  0  0  0  0
    1.6204   -9.9887   17.2935 C   0  0  0  0  0  0  0  0  0  0  0  0
    1.8931   -7.9265   16.2047 C   0  0  0  0  0  0  0  0  0  0  0  0
    2.4396   -9.0801   16.7132 C   0  0  0  0  0  0  0  0  0  0  0  0
   -0.2575   -8.6234   16.8582 C   0  0  0  0  0  0  0  0  0  0  0  0
    4.0614   -7.0367   27.0106 N   0  0  0  0  0  0  0  0  0  0  0  0
   -2.9133  -11.6279   18.7578 C   0  0  0  0  0  0  0  0  0  0  0  0
    4.5688  -10.1291   29.5758 C   0  0  0  0  0  0  0  0  0  0  0  0
    2.1008   -9.0410   29.1852 N   0  0  0  0  0  0  0  0  0  0  0  0
    3.4829  -10.5697   30.2091 N   0  0  0  0  0  0  0  0  0  0  0  0
   -0.3363   -6.1172   27.5628 C   0  0  0  0  0  0  0  0  0  0  0  0
    3.0331   -7.4400   27.6362 C   0  0  0  0  0  0  0  0  0  0  0  0
    5.4553   -8.5933   27.9644 C   0  0  0  0  0  0  0  0  0  0  0  0
   -2.3870  -12.8440   19.2512 C   0  0  0  0  0  0  0  0  0  0  0  0
    0.5331   -7.6964   16.2751 C   0  0  0  0  0  0  0  0  0  0  0  0
   -0.6740  -10.8737   18.0482 C   0  0  0  0  0  0  0  0  0  0  0  0
    5.6751  -10.5870   29.7637 O   0  0  0  0  0  0  0  0  0  0  0  0
    1.7612   -5.6483   26.7172 C   0  0  0  0  0  0  0  0  0  0  0  0
    0.2221   -9.8326   17.4055 C   0  0  0  0  0  0  0  0  0  0  0  0
    4.3850   -9.0730   28.6745 C   0  0  0  0  0  0  0  0  0  0  0  0
  1  7  4  0
  1 22  4  0
  2 17  4  0
  2 20  4  0
  2 28  4  0
  3  6  1  0
  3 19  1  0
  4 19  1  0
  4 26  1  0
  5 17  4  0
  5 18  4  0
  6 20  1  0
  6 26  1  0
  7 24  4  0
  8 15  4  0
  8 24  4  0
  9 14  4  0
  9 21  4  0
 10 12  4  0
 10 27  4  0
 11 12  4  0
 11 23  4  0
 13 23  4  0
 13 27  4  0
 14 20  4  0
 15 22  4  0
 16 18  4  0
 16 25  2  0
 16 28  4  0
 21 28  4  0
 24 27  1  0
M  END
$$$$

 Created by Python create_sdf_string function

 28 31  0  0  0  0  0  0  0  0999 V2000
   -1.0054  -13.0622   19.1198 C   0  0  0  0  0  0  0  0  0  0  0  0
    3.1478   -8.5360   28.5161 C   0  0  0  0  0  0  0  0  0  0  0  0
    0.5798   -7.1906   27.9330 C   0  0  0  0  0  0  0  0  0  0  0  0
    0.3978   -5.1561   26.6955 C   0  0  0  0  0  0  0  0  0  0  0  0
    2.3063  -10.0533   30.0125 C   0  0  0  0  0  0  0  0  0  0  0  0
    1.8591   -6.8254   27.4685 N   0  0  0  0  0  0  0  0  0  0  0  0
   -0.2167  -12.1055   18.5568 C   0  0  0  0  0  0  0  0  0  0  0  0
   -2.0661  -10.6994   18.1916 C   0  0  0  0  0  0  0  0  0  0  0  0
    5.2703   -7.5691   27.1123 C   0  0  0  0  0  0  0  0  0  0  0  0
    1.6204   -9.9887   17.2935 C   0  0  0  0  0  0  0  0  0  0  0  0
    1.8931   -7.9265   16.2047 C   0  0  0  0  0  0  0  0  0  0  0  0
    2.4396   -9.0801   16.7132 C   0  0  0  0  0  0  0  0  0  0  0  0
   -0.2575   -8.6234   16.8582 C   0  0  0  0  0  0  0  0  0  0  0  0
    4.0614   -7.0367   27.0106 N   0  0  0  0  0  0  0  0  0  0  0  0
   -2.9133  -11.6279   18.7578 C   0  0  0  0  0  0  0  0  0  0  0  0
    4.5688  -10.1291   29.5758 C   0  0  0  0  0  0  0  0  0  0  0  0
    2.1008   -9.0410   29.1852 N   0  0  0  0  0  0  0  0  0  0  0  0
    3.4829  -10.5697   30.2091 N   0  0  0  0  0  0  0  0  0  0  0  0
   -0.3363   -6.1172   27.5628 C   0  0  0  0  0  0  0  0  0  0  0  0
    3.0331   -7.4400   27.6362 C   0  0  0  0  0  0  0  0  0  0  0  0
    5.4553   -8.5933   27.9644 C   0  0  0  0  0  0  0  0  0  0  0  0
   -2.3870  -12.8440   19.2512 C   0  0  0  0  0  0  0  0  0  0  0  0
    0.5331   -7.6964   16.2751 C   0  0  0  0  0  0  0  0  0  0  0  0
   -0.6740  -10.8737   18.0482 C   0  0  0  0  0  0  0  0  0  0  0  0
    5.6751  -10.5870   29.7637 O   0  0  0  0  0  0  0  0  0  0  0  0
    1.7612   -5.6483   26.7172 C   0  0  0  0  0  0  0  0  0  0  0  0
    0.2221   -9.8326   17.4055 C   0  0  0  0  0  0  0  0  0  0  0  0
    4.3850   -9.0730   28.6745 C   0  0  0  0  0  0  0  0  0  0  0  0
  1  7  4  0
  1 22  4  0
  2 17  4  0
  2 20  4  0
  2 28  4  0
  3  6  1  0
  3 19  1  0
  4 19  1  0
  4 26  1  0
  5 17  4  0
  5 18  4  0
  6 20  1  0
  6 26  1  0
  7 24  4  0
  8 15  4  0
  8 24  4  0
  9 14  4  0
  9 21  4  0
 10 12  4  0
 10 27  4  0
 11 12  4  0
 11 23  4  0
 13 23  4  0
 13 27  4  0
 14 20  4  0
 15 22  4  0
 16 18  4  0
 16 25  2  0
 16 28  4  0
 21 28  4  0
 24 27  1  0
M  END
$$$$

 Created by Python create_sdf_string function

 28 31  0  0  0  0  0  0  0  0999 V2000
   -1.0054  -13.0622   19.1198 C   0  0  0  0  0  0  0  0  0  0  0  0
    3.1478   -8.5360   28.5161 C   0  0  0  0  0  0  0  0  0  0  0  0
    0.5798   -7.1906   27.9330 C   0  0  0  0  0  0  0  0  0  0  0  0
    0.3978   -5.1561   26.6955 C   0  0  0  0  0  0  0  0  0  0  0  0
    2.3063  -10.0533   30.0125 C   0  0  0  0  0  0  0  0  0  0  0  0
    1.8591   -6.8254   27.4685 N   0  0  0  0  0  0  0  0  0  0  0  0
   -0.2167  -12.1055   18.5568 C   0  0  0  0  0  0  0  0  0  0  0  0
   -2.0661  -10.6994   18.1916 C   0  0  0  0  0  0  0  0  0  0  0  0
    5.2703   -7.5691   27.1123 C   0  0  0  0  0  0  0  0  0  0  0  0
    1.6204   -9.9887   17.2935 C   0  0  0  0  0  0  0  0  0  0  0  0
    1.8931   -7.9265   16.2047 C   0  0  0  0  0  0  0  0  0  0  0  0
    2.4396   -9.0801   16.7132 C   0  0  0  0  0  0  0  0  0  0  0  0
   -0.2575   -8.6234   16.8582 C   0  0  0  0  0  0  0  0  0  0  0  0
    4.0614   -7.0367   27.0106 N   0  0  0  0  0  0  0  0  0  0  0  0
   -2.9133  -11.6279   18.7578 C   0  0  0  0  0  0  0  0  0  0  0  0
    4.5688  -10.1291   29.5758 C   0  0  0  0  0  0  0  0  0  0  0  0
    2.1008   -9.0410   29.1852 N   0  0  0  0  0  0  0  0  0  0  0  0
    3.4829  -10.5697   30.2091 N   0  0  0  0  0  0  0  0  0  0  0  0
   -0.3363   -6.1172   27.5628 C   0  0  0  0  0  0  0  0  0  0  0  0
    3.0331   -7.4400   27.6362 C   0  0  0  0  0  0  0  0  0  0  0  0
    5.4553   -8.5933   27.9644 C   0  0  0  0  0  0  0  0  0  0  0  0
   -2.3870  -12.8440   19.2512 C   0  0  0  0  0  0  0  0  0  0  0  0
    0.5331   -7.6964   16.2751 C   0  0  0  0  0  0  0  0  0  0  0  0
   -0.6740  -10.8737   18.0482 C   0  0  0  0  0  0  0  0  0  0  0  0
    5.6751  -10.5870   29.7637 O   0  0  0  0  0  0  0  0  0  0  0  0
    1.7612   -5.6483   26.7172 C   0  0  0  0  0  0  0  0  0  0  0  0
    0.2221   -9.8326   17.4055 C   0  0  0  0  0  0  0  0  0  0  0  0
    4.3850   -9.0730   28.6745 C   0  0  0  0  0  0  0  0  0  0  0  0
  1  7  4  0
  1 22  4  0
  2 17  4  0
  2 20  4  0
  2 28  4  0
  3  6  1  0
  3 19  1  0
  4 19  1  0
  4 26  1  0
  5 17  4  0
  5 18  4  0
  6 20  1  0
  6 26  1  0
  7 24  4  0
  8 15  4  0
  8 24  4  0
  9 14  4  0
  9 21  4  0
 10 12  4  0
 10 27  4  0
 11 12  4  0
 11 23  4  0
 13 23  4  0
 13 27  4  0
 14 20  4  0
 15 22  4  0
 16 18  4  0
 16 25  2  0
 16 28  4  0
 21 28  4  0
 24 27  1  0
M  END
$$$$

 Created by Python create_sdf_string function

 28 31  0  0  0  0  0  0  0  0999 V2000
   -1.0054  -13.0622   19.1198 C   0  0  0  0  0  0  0  0  0  0  0  0
    3.1478   -8.5360   28.5161 C   0  0  0  0  0  0  0  0  0  0  0  0
    0.5798   -7.1906   27.9330 C   0  0  0  0  0  0  0  0  0  0  0  0
    0.3978   -5.1561   26.6955 C   0  0  0  0  0  0  0  0  0  0  0  0
    2.3063  -10.0533   30.0125 C   0  0  0  0  0  0  0  0  0  0  0  0
    1.8591   -6.8254   27.4685 N   0  0  0  0  0  0  0  0  0  0  0  0
   -0.2167  -12.1055   18.5568 C   0  0  0  0  0  0  0  0  0  0  0  0
   -2.0661  -10.6994   18.1916 C   0  0  0  0  0  0  0  0  0  0  0  0
    5.2703   -7.5691   27.1123 C   0  0  0  0  0  0  0  0  0  0  0  0
    1.6204   -9.9887   17.2935 C   0  0  0  0  0  0  0  0  0  0  0  0
    1.8931   -7.9265   16.2047 C   0  0  0  0  0  0  0  0  0  0  0  0
    2.4396   -9.0801   16.7132 C   0  0  0  0  0  0  0  0  0  0  0  0
   -0.2575   -8.6234   16.8582 C   0  0  0  0  0  0  0  0  0  0  0  0
    4.0614   -7.0367   27.0106 N   0  0  0  0  0  0  0  0  0  0  0  0
   -2.9133  -11.6279   18.7578 C   0  0  0  0  0  0  0  0  0  0  0  0
    4.5688  -10.1291   29.5758 C   0  0  0  0  0  0  0  0  0  0  0  0
    2.1008   -9.0410   29.1852 N   0  0  0  0  0  0  0  0  0  0  0  0
    3.4829  -10.5697   30.2091 N   0  0  0  0  0  0  0  0  0  0  0  0
   -0.3363   -6.1172   27.5628 C   0  0  0  0  0  0  0  0  0  0  0  0
    3.0331   -7.4400   27.6362 C   0  0  0  0  0  0  0  0  0  0  0  0
    5.4553   -8.5933   27.9644 C   0  0  0  0  0  0  0  0  0  0  0  0
   -2.3870  -12.8440   19.2512 C   0  0  0  0  0  0  0  0  0  0  0  0
    0.5331   -7.6964   16.2751 C   0  0  0  0  0  0  0  0  0  0  0  0
   -0.6740  -10.8737   18.0482 C   0  0  0  0  0  0  0  0  0  0  0  0
    5.6751  -10.5870   29.7637 O   0  0  0  0  0  0  0  0  0  0  0  0
    1.7612   -5.6483   26.7172 C   0  0  0  0  0  0  0  0  0  0  0  0
    0.2221   -9.8326   17.4055 C   0  0  0  0  0  0  0  0  0  0  0  0
    4.3850   -9.0730   28.6745 C   0  0  0  0  0  0  0  0  0  0  0  0
  1  7  4  0
  1 22  4  0
  2 17  4  0
  2 20  4  0
  2 28  4  0
  3  6  1  0
  3 19  1  0
  4 19  1  0
  4 26  1  0
  5 17  4  0
  5 18  4  0
  6 20  1  0
  6 26  1  0
  7 24  4  0
  8 15  4  0
  8 24  4  0
  9 14  4  0
  9 21  4  0
 10 12  4  0
 10 27  4  0
 11 12  4  0
 11 23  4  0
 13 23  4  0
 13 27  4  0
 14 20  4  0
 15 22  4  0
 16 18  4  0
 16 25  2  0
 16 28  4  0
 21 28  4  0
 24 27  1  0
M  END
$$$$

 Created by Python create_sdf_string function

 28 31  0  0  0  0  0  0  0  0999 V2000
   -1.0054  -13.0622   19.1198 C   0  0  0  0  0  0  0  0  0  0  0  0
    3.1478   -8.5360   28.5161 C   0  0  0  0  0  0  0  0  0  0  0  0
    0.5798   -7.1906   27.9330 C   0  0  0  0  0  0  0  0  0  0  0  0
    0.3978   -5.1561   26.6955 C   0  0  0  0  0  0  0  0  0  0  0  0
    2.3063  -10.0533   30.0125 C   0  0  0  0  0  0  0  0  0  0  0  0
    1.8591   -6.8254   27.4685 N   0  0  0  0  0  0  0  0  0  0  0  0
   -0.2167  -12.1055   18.5568 C   0  0  0  0  0  0  0  0  0  0  0  0
   -2.0661  -10.6994   18.1916 C   0  0  0  0  0  0  0  0  0  0  0  0
    5.2703   -7.5691   27.1123 C   0  0  0  0  0  0  0  0  0  0  0  0
    1.6204   -9.9887   17.2935 C   0  0  0  0  0  0  0  0  0  0  0  0
    1.8931   -7.9265   16.2047 C   0  0  0  0  0  0  0  0  0  0  0  0
    2.4396   -9.0801   16.7132 C   0  0  0  0  0  0  0  0  0  0  0  0
   -0.2575   -8.6234   16.8582 C   0  0  0  0  0  0  0  0  0  0  0  0
    4.0614   -7.0367   27.0106 N   0  0  0  0  0  0  0  0  0  0  0  0
   -2.9133  -11.6279   18.7578 C   0  0  0  0  0  0  0  0  0  0  0  0
    4.5688  -10.1291   29.5758 C   0  0  0  0  0  0  0  0  0  0  0  0
    2.1008   -9.0410   29.1852 N   0  0  0  0  0  0  0  0  0  0  0  0
    3.4829  -10.5697   30.2091 N   0  0  0  0  0  0  0  0  0  0  0  0
   -0.3363   -6.1172   27.5628 C   0  0  0  0  0  0  0  0  0  0  0  0
    3.0331   -7.4400   27.6362 C   0  0  0  0  0  0  0  0  0  0  0  0
    5.4553   -8.5933   27.9644 C   0  0  0  0  0  0  0  0  0  0  0  0
   -2.3870  -12.8440   19.2512 C   0  0  0  0  0  0  0  0  0  0  0  0
    0.5331   -7.6964   16.2751 C   0  0  0  0  0  0  0  0  0  0  0  0
   -0.6740  -10.8737   18.0482 C   0  0  0  0  0  0  0  0  0  0  0  0
    5.6751  -10.5870   29.7637 O   0  0  0  0  0  0  0  0  0  0  0  0
    1.7612   -5.6483   26.7172 C   0  0  0  0  0  0  0  0  0  0  0  0
    0.2221   -9.8326   17.4055 C   0  0  0  0  0  0  0  0  0  0  0  0
    4.3850   -9.0730   28.6745 C   0  0  0  0  0  0  0  0  0  0  0  0
  1  7  4  0
  1 22  4  0
  2 17  4  0
  2 20  4  0
  2 28  4  0
  3  6  1  0
  3 19  1  0
  4 19  1  0
  4 26  1  0
  5 17  4  0
  5 18  4  0
  6 20  1  0
  6 26  1  0
  7 24  4  0
  8 15  4  0
  8 24  4  0
  9 14  4  0
  9 21  4  0
 10 12  4  0
 10 27  4  0
 11 12  4  0
 11 23  4  0
 13 23  4  0
 13 27  4  0
 14 20  4  0
 15 22  4  0
 16 18  4  0
 16 25  2  0
 16 28  4  0
 21 28  4  0
 24 27  1  0
M  END
$$$$

 Created by Python create_sdf_string function

 28 31  0  0  0  0  0  0  0  0999 V2000
   -1.0054  -13.0622   19.1198 C   0  0  0  0  0  0  0  0  0  0  0  0
    3.1478   -8.5360   28.5161 C   0  0  0  0  0  0  0  0  0  0  0  0
    0.5798   -7.1906   27.9330 C   0  0  0  0  0  0  0  0  0  0  0  0
    0.3978   -5.1561   26.6955 C   0  0  0  0  0  0  0  0  0  0  0  0
    2.3063  -10.0533   30.0125 C   0  0  0  0  0  0  0  0  0  0  0  0
    1.8591   -6.8254   27.4685 N   0  0  0  0  0  0  0  0  0  0  0  0
   -0.2167  -12.1055   18.5568 C   0  0  0  0  0  0  0  0  0  0  0  0
   -2.0661  -10.6994   18.1916 C   0  0  0  0  0  0  0  0  0  0  0  0
    5.2703   -7.5691   27.1123 C   0  0  0  0  0  0  0  0  0  0  0  0
    1.6204   -9.9887   17.2935 C   0  0  0  0  0  0  0  0  0  0  0  0
    1.8931   -7.9265   16.2047 C   0  0  0  0  0  0  0  0  0  0  0  0
    2.4396   -9.0801   16.7132 C   0  0  0  0  0  0  0  0  0  0  0  0
   -0.2575   -8.6234   16.8582 C   0  0  0  0  0  0  0  0  0  0  0  0
    4.0614   -7.0367   27.0106 N   0  0  0  0  0  0  0  0  0  0  0  0
   -2.9133  -11.6279   18.7578 C   0  0  0  0  0  0  0  0  0  0  0  0
    4.5688  -10.1291   29.5758 C   0  0  0  0  0  0  0  0  0  0  0  0
    2.1008   -9.0410   29.1852 N   0  0  0  0  0  0  0  0  0  0  0  0
    3.4829  -10.5697   30.2091 N   0  0  0  0  0  0  0  0  0  0  0  0
   -0.3363   -6.1172   27.5628 C   0  0  0  0  0  0  0  0  0  0  0  0
    3.0331   -7.4400   27.6362 C   0  0  0  0  0  0  0  0  0  0  0  0
    5.4553   -8.5933   27.9644 C   0  0  0  0  0  0  0  0  0  0  0  0
   -2.3870  -12.8440   19.2512 C   0  0  0  0  0  0  0  0  0  0  0  0
    0.5331   -7.6964   16.2751 C   0  0  0  0  0  0  0  0  0  0  0  0
   -0.6740  -10.8737   18.0482 C   0  0  0  0  0  0  0  0  0  0  0  0
    5.6751  -10.5870   29.7637 O   0  0  0  0  0  0  0  0  0  0  0  0
    1.7612   -5.6483   26.7172 C   0  0  0  0  0  0  0  0  0  0  0  0
    0.2221   -9.8326   17.4055 C   0  0  0  0  0  0  0  0  0  0  0  0
    4.3850   -9.0730   28.6745 C   0  0  0  0  0  0  0  0  0  0  0  0
  1  7  4  0
  1 22  4  0
  2 17  4  0
  2 20  4  0
  2 28  4  0
  3  6  1  0
  3 19  1  0
  4 19  1  0
  4 26  1  0
  5 17  4  0
  5 18  4  0
  6 20  1  0
  6 26  1  0
  7 24  4  0
  8 15  4  0
  8 24  4  0
  9 14  4  0
  9 21  4  0
 10 12  4  0
 10 27  4  0
 11 12  4  0
 11 23  4  0
 13 23  4  0
 13 27  4  0
 14 20  4  0
 15 22  4  0
 16 18  4  0
 16 25  2  0
 16 28  4  0
 21 28  4  0
 24 27  1  0
M  END
$$$$

 Created by Python create_sdf_string function

 28 31  0  0  0  0  0  0  0  0999 V2000
   -1.0054  -13.0622   19.1198 C   0  0  0  0  0  0  0  0  0  0  0  0
    3.1478   -8.5360   28.5161 C   0  0  0  0  0  0  0  0  0  0  0  0
    0.5798   -7.1906   27.9330 C   0  0  0  0  0  0  0  0  0  0  0  0
    0.3978   -5.1561   26.6955 C   0  0  0  0  0  0  0  0  0  0  0  0
    2.3063  -10.0533   30.0125 C   0  0  0  0  0  0  0  0  0  0  0  0
    1.8591   -6.8254   27.4685 N   0  0  0  0  0  0  0  0  0  0  0  0
   -0.2167  -12.1055   18.5568 C   0  0  0  0  0  0  0  0  0  0  0  0
   -2.0661  -10.6994   18.1916 C   0  0  0  0  0  0  0  0  0  0  0  0
    5.2703   -7.5691   27.1123 C   0  0  0  0  0  0  0  0  0  0  0  0
    1.6204   -9.9887   17.2935 C   0  0  0  0  0  0  0  0  0  0  0  0
    1.8931   -7.9265   16.2047 C   0  0  0  0  0  0  0  0  0  0  0  0
    2.4396   -9.0801   16.7132 C   0  0  0  0  0  0  0  0  0  0  0  0
   -0.2575   -8.6234   16.8582 C   0  0  0  0  0  0  0  0  0  0  0  0
    4.0614   -7.0367   27.0106 N   0  0  0  0  0  0  0  0  0  0  0  0
   -2.9133  -11.6279   18.7578 C   0  0  0  0  0  0  0  0  0  0  0  0
    4.5688  -10.1291   29.5758 C   0  0  0  0  0  0  0  0  0  0  0  0
    2.1008   -9.0410   29.1852 N   0  0  0  0  0  0  0  0  0  0  0  0
    3.4829  -10.5697   30.2091 N   0  0  0  0  0  0  0  0  0  0  0  0
   -0.3363   -6.1172   27.5628 C   0  0  0  0  0  0  0  0  0  0  0  0
    3.0331   -7.4400   27.6362 C   0  0  0  0  0  0  0  0  0  0  0  0
    5.4553   -8.5933   27.9644 C   0  0  0  0  0  0  0  0  0  0  0  0
   -2.3870  -12.8440   19.2512 C   0  0  0  0  0  0  0  0  0  0  0  0
    0.5331   -7.6964   16.2751 C   0  0  0  0  0  0  0  0  0  0  0  0
   -0.6740  -10.8737   18.0482 C   0  0  0  0  0  0  0  0  0  0  0  0
    5.6751  -10.5870   29.7637 O   0  0  0  0  0  0  0  0  0  0  0  0
    1.7612   -5.6483   26.7172 C   0  0  0  0  0  0  0  0  0  0  0  0
    0.2221   -9.8326   17.4055 C   0  0  0  0  0  0  0  0  0  0  0  0
    4.3850   -9.0730   28.6745 C   0  0  0  0  0  0  0  0  0  0  0  0
  1  7  4  0
  1 22  4  0
  2 17  4  0
  2 20  4  0
  2 28  4  0
  3  6  1  0
  3 19  1  0
  4 19  1  0
  4 26  1  0
  5 17  4  0
  5 18  4  0
  6 20  1  0
  6 26  1  0
  7 24  4  0
  8 15  4  0
  8 24  4  0
  9 14  4  0
  9 21  4  0
 10 12  4  0
 10 27  4  0
 11 12  4  0
 11 23  4  0
 13 23  4  0
 13 27  4  0
 14 20  4  0
 15 22  4  0
 16 18  4  0
 16 25  2  0
 16 28  4  0
 21 28  4  0
 24 27  1  0
M  END
$$$$

 Created by Python create_sdf_string function

 28 31  0  0  0  0  0  0  0  0999 V2000
   -1.0054  -13.0622   19.1198 C   0  0  0  0  0  0  0  0  0  0  0  0
    3.1478   -8.5360   28.5161 C   0  0  0  0  0  0  0  0  0  0  0  0
    0.5798   -7.1906   27.9330 C   0  0  0  0  0  0  0  0  0  0  0  0
    0.3978   -5.1561   26.6955 C   0  0  0  0  0  0  0  0  0  0  0  0
    2.3063  -10.0533   30.0125 C   0  0  0  0  0  0  0  0  0  0  0  0
    1.8591   -6.8254   27.4685 N   0  0  0  0  0  0  0  0  0  0  0  0
   -0.2167  -12.1055   18.5568 C   0  0  0  0  0  0  0  0  0  0  0  0
   -2.0661  -10.6994   18.1916 C   0  0  0  0  0  0  0  0  0  0  0  0
    5.2703   -7.5691   27.1123 C   0  0  0  0  0  0  0  0  0  0  0  0
    1.6204   -9.9887   17.2935 C   0  0  0  0  0  0  0  0  0  0  0  0
    1.8931   -7.9265   16.2047 C   0  0  0  0  0  0  0  0  0  0  0  0
    2.4396   -9.0801   16.7132 C   0  0  0  0  0  0  0  0  0  0  0  0
   -0.2575   -8.6234   16.8582 C   0  0  0  0  0  0  0  0  0  0  0  0
    4.0614   -7.0367   27.0106 N   0  0  0  0  0  0  0  0  0  0  0  0
   -2.9133  -11.6279   18.7578 C   0  0  0  0  0  0  0  0  0  0  0  0
    4.5688  -10.1291   29.5758 C   0  0  0  0  0  0  0  0  0  0  0  0
    2.1008   -9.0410   29.1852 N   0  0  0  0  0  0  0  0  0  0  0  0
    3.4829  -10.5697   30.2091 N   0  0  0  0  0  0  0  0  0  0  0  0
   -0.3363   -6.1172   27.5628 C   0  0  0  0  0  0  0  0  0  0  0  0
    3.0331   -7.4400   27.6362 C   0  0  0  0  0  0  0  0  0  0  0  0
    5.4553   -8.5933   27.9644 C   0  0  0  0  0  0  0  0  0  0  0  0
   -2.3870  -12.8440   19.2512 C   0  0  0  0  0  0  0  0  0  0  0  0
    0.5331   -7.6964   16.2751 C   0  0  0  0  0  0  0  0  0  0  0  0
   -0.6740  -10.8737   18.0482 C   0  0  0  0  0  0  0  0  0  0  0  0
    5.6751  -10.5870   29.7637 O   0  0  0  0  0  0  0  0  0  0  0  0
    1.7612   -5.6483   26.7172 C   0  0  0  0  0  0  0  0  0  0  0  0
    0.2221   -9.8326   17.4055 C   0  0  0  0  0  0  0  0  0  0  0  0
    4.3850   -9.0730   28.6745 C   0  0  0  0  0  0  0  0  0  0  0  0
  1  7  4  0
  1 22  4  0
  2 17  4  0
  2 20  4  0
  2 28  4  0
  3  6  1  0
  3 19  1  0
  4 19  1  0
  4 26  1  0
  5 17  4  0
  5 18  4  0
  6 20  1  0
  6 26  1  0
  7 24  4  0
  8 15  4  0
  8 24  4  0
  9 14  4  0
  9 21  4  0
 10 12  4  0
 10 27  4  0
 11 12  4  0
 11 23  4  0
 13 23  4  0
 13 27  4  0
 14 20  4  0
 15 22  4  0
 16 18  4  0
 16 25  2  0
 16 28  4  0
 21 28  4  0
 24 27  1  0
M  END
$$$$

 Created by Python create_sdf_string function

 28 31  0  0  0  0  0  0  0  0999 V2000
   -1.0054  -13.0622   19.1198 C   0  0  0  0  0  0  0  0  0  0  0  0
    3.1478   -8.5360   28.5161 C   0  0  0  0  0  0  0  0  0  0  0  0
    0.5798   -7.1906   27.9330 C   0  0  0  0  0  0  0  0  0  0  0  0
    0.3978   -5.1561   26.6955 C   0  0  0  0  0  0  0  0  0  0  0  0
    2.3063  -10.0533   30.0125 C   0  0  0  0  0  0  0  0  0  0  0  0
    1.8591   -6.8254   27.4685 N   0  0  0  0  0  0  0  0  0  0  0  0
   -0.2167  -12.1055   18.5568 C   0  0  0  0  0  0  0  0  0  0  0  0
   -2.0661  -10.6994   18.1916 C   0  0  0  0  0  0  0  0  0  0  0  0
    5.2703   -7.5691   27.1123 C   0  0  0  0  0  0  0  0  0  0  0  0
    1.6204   -9.9887   17.2935 C   0  0  0  0  0  0  0  0  0  0  0  0
    1.8931   -7.9265   16.2047 C   0  0  0  0  0  0  0  0  0  0  0  0
    2.4396   -9.0801   16.7132 C   0  0  0  0  0  0  0  0  0  0  0  0
   -0.2575   -8.6234   16.8582 C   0  0  0  0  0  0  0  0  0  0  0  0
    4.0614   -7.0367   27.0106 N   0  0  0  0  0  0  0  0  0  0  0  0
   -2.9133  -11.6279   18.7578 C   0  0  0  0  0  0  0  0  0  0  0  0
    4.5688  -10.1291   29.5758 C   0  0  0  0  0  0  0  0  0  0  0  0
    2.1008   -9.0410   29.1852 N   0  0  0  0  0  0  0  0  0  0  0  0
    3.4829  -10.5697   30.2091 N   0  0  0  0  0  0  0  0  0  0  0  0
   -0.3363   -6.1172   27.5628 C   0  0  0  0  0  0  0  0  0  0  0  0
    3.0331   -7.4400   27.6362 C   0  0  0  0  0  0  0  0  0  0  0  0
    5.4553   -8.5933   27.9644 C   0  0  0  0  0  0  0  0  0  0  0  0
   -2.3870  -12.8440   19.2512 C   0  0  0  0  0  0  0  0  0  0  0  0
    0.5331   -7.6964   16.2751 C   0  0  0  0  0  0  0  0  0  0  0  0
   -0.6740  -10.8737   18.0482 C   0  0  0  0  0  0  0  0  0  0  0  0
    5.6751  -10.5870   29.7637 O   0  0  0  0  0  0  0  0  0  0  0  0
    1.7612   -5.6483   26.7172 C   0  0  0  0  0  0  0  0  0  0  0  0
    0.2221   -9.8326   17.4055 C   0  0  0  0  0  0  0  0  0  0  0  0
    4.3850   -9.0730   28.6745 C   0  0  0  0  0  0  0  0  0  0  0  0
  1  7  4  0
  1 22  4  0
  2 17  4  0
  2 20  4  0
  2 28  4  0
  3  6  1  0
  3 19  1  0
  4 19  1  0
  4 26  1  0
  5 17  4  0
  5 18  4  0
  6 20  1  0
  6 26  1  0
  7 24  4  0
  8 15  4  0
  8 24  4  0
  9 14  4  0
  9 21  4  0
 10 12  4  0
 10 27  4  0
 11 12  4  0
 11 23  4  0
 13 23  4  0
 13 27  4  0
 14 20  4  0
 15 22  4  0
 16 18  4  0
 16 25  2  0
 16 28  4  0
 21 28  4  0
 24 27  1  0
M  END
$$$$

 Created by Python create_sdf_string function

 28 31  0  0  0  0  0  0  0  0999 V2000
   -1.0054  -13.0622   19.1198 C   0  0  0  0  0  0  0  0  0  0  0  0
    3.1478   -8.5360   28.5161 C   0  0  0  0  0  0  0  0  0  0  0  0
    0.5798   -7.1906   27.9330 C   0  0  0  0  0  0  0  0  0  0  0  0
    0.3978   -5.1561   26.6955 C   0  0  0  0  0  0  0  0  0  0  0  0
    2.3063  -10.0533   30.0125 C   0  0  0  0  0  0  0  0  0  0  0  0
    1.8591   -6.8254   27.4685 N   0  0  0  0  0  0  0  0  0  0  0  0
   -0.2167  -12.1055   18.5568 C   0  0  0  0  0  0  0  0  0  0  0  0
   -2.0661  -10.6994   18.1916 C   0  0  0  0  0  0  0  0  0  0  0  0
    5.2703   -7.5691   27.1123 C   0  0  0  0  0  0  0  0  0  0  0  0
    1.6204   -9.9887   17.2935 C   0  0  0  0  0  0  0  0  0  0  0  0
    1.8931   -7.9265   16.2047 C   0  0  0  0  0  0  0  0  0  0  0  0
    2.4396   -9.0801   16.7132 C   0  0  0  0  0  0  0  0  0  0  0  0
   -0.2575   -8.6234   16.8582 C   0  0  0  0  0  0  0  0  0  0  0  0
    4.0614   -7.0367   27.0106 N   0  0  0  0  0  0  0  0  0  0  0  0
   -2.9133  -11.6279   18.7578 C   0  0  0  0  0  0  0  0  0  0  0  0
    4.5688  -10.1291   29.5758 C   0  0  0  0  0  0  0  0  0  0  0  0
    2.1008   -9.0410   29.1852 N   0  0  0  0  0  0  0  0  0  0  0  0
    3.4829  -10.5697   30.2091 N   0  0  0  0  0  0  0  0  0  0  0  0
   -0.3363   -6.1172   27.5628 C   0  0  0  0  0  0  0  0  0  0  0  0
    3.0331   -7.4400   27.6362 C   0  0  0  0  0  0  0  0  0  0  0  0
    5.4553   -8.5933   27.9644 C   0  0  0  0  0  0  0  0  0  0  0  0
   -2.3870  -12.8440   19.2512 C   0  0  0  0  0  0  0  0  0  0  0  0
    0.5331   -7.6964   16.2751 C   0  0  0  0  0  0  0  0  0  0  0  0
   -0.6740  -10.8737   18.0482 C   0  0  0  0  0  0  0  0  0  0  0  0
    5.6751  -10.5870   29.7637 O   0  0  0  0  0  0  0  0  0  0  0  0
    1.7612   -5.6483   26.7172 C   0  0  0  0  0  0  0  0  0  0  0  0
    0.2221   -9.8326   17.4055 C   0  0  0  0  0  0  0  0  0  0  0  0
    4.3850   -9.0730   28.6745 C   0  0  0  0  0  0  0  0  0  0  0  0
  1  7  4  0
  1 22  4  0
  2 17  4  0
  2 20  4  0
  2 28  4  0
  3  6  1  0
  3 19  1  0
  4 19  1  0
  4 26  1  0
  5 17  4  0
  5 18  4  0
  6 20  1  0
  6 26  1  0
  7 24  4  0
  8 15  4  0
  8 24  4  0
  9 14  4  0
  9 21  4  0
 10 12  4  0
 10 27  4  0
 11 12  4  0
 11 23  4  0
 13 23  4  0
 13 27  4  0
 14 20  4  0
 15 22  4  0
 16 18  4  0
 16 25  2  0
 16 28  4  0
 21 28  4  0
 24 27  1  0
M  END
$$$$

 Created by Python create_sdf_string function

 28 31  0  0  0  0  0  0  0  0999 V2000
   -1.0054  -13.0622   19.1198 C   0  0  0  0  0  0  0  0  0  0  0  0
    3.1478   -8.5360   28.5161 C   0  0  0  0  0  0  0  0  0  0  0  0
    0.5798   -7.1906   27.9330 C   0  0  0  0  0  0  0  0  0  0  0  0
    0.3978   -5.1561   26.6955 C   0  0  0  0  0  0  0  0  0  0  0  0
    2.3063  -10.0533   30.0125 C   0  0  0  0  0  0  0  0  0  0  0  0
    1.8591   -6.8254   27.4685 N   0  0  0  0  0  0  0  0  0  0  0  0
   -0.2167  -12.1055   18.5568 C   0  0  0  0  0  0  0  0  0  0  0  0
   -2.0661  -10.6994   18.1916 C   0  0  0  0  0  0  0  0  0  0  0  0
    5.2703   -7.5691   27.1123 C   0  0  0  0  0  0  0  0  0  0  0  0
    1.6204   -9.9887   17.2935 C   0  0  0  0  0  0  0  0  0  0  0  0
    1.8931   -7.9265   16.2047 C   0  0  0  0  0  0  0  0  0  0  0  0
    2.4396   -9.0801   16.7132 C   0  0  0  0  0  0  0  0  0  0  0  0
   -0.2575   -8.6234   16.8582 C   0  0  0  0  0  0  0  0  0  0  0  0
    4.0614   -7.0367   27.0106 N   0  0  0  0  0  0  0  0  0  0  0  0
   -2.9133  -11.6279   18.7578 C   0  0  0  0  0  0  0  0  0  0  0  0
    4.5688  -10.1291   29.5758 C   0  0  0  0  0  0  0  0  0  0  0  0
    2.1008   -9.0410   29.1852 N   0  0  0  0  0  0  0  0  0  0  0  0
    3.4829  -10.5697   30.2091 N   0  0  0  0  0  0  0  0  0  0  0  0
   -0.3363   -6.1172   27.5628 C   0  0  0  0  0  0  0  0  0  0  0  0
    3.0331   -7.4400   27.6362 C   0  0  0  0  0  0  0  0  0  0  0  0
    5.4553   -8.5933   27.9644 C   0  0  0  0  0  0  0  0  0  0  0  0
   -2.3870  -12.8440   19.2512 C   0  0  0  0  0  0  0  0  0  0  0  0
    0.5331   -7.6964   16.2751 C   0  0  0  0  0  0  0  0  0  0  0  0
   -0.6740  -10.8737   18.0482 C   0  0  0  0  0  0  0  0  0  0  0  0
    5.6751  -10.5870   29.7637 O   0  0  0  0  0  0  0  0  0  0  0  0
    1.7612   -5.6483   26.7172 C   0  0  0  0  0  0  0  0  0  0  0  0
    0.2221   -9.8326   17.4055 C   0  0  0  0  0  0  0  0  0  0  0  0
    4.3850   -9.0730   28.6745 C   0  0  0  0  0  0  0  0  0  0  0  0
  1  7  4  0
  1 22  4  0
  2 17  4  0
  2 20  4  0
  2 28  4  0
  3  6  1  0
  3 19  1  0
  4 19  1  0
  4 26  1  0
  5 17  4  0
  5 18  4  0
  6 20  1  0
  6 26  1  0
  7 24  4  0
  8 15  4  0
  8 24  4  0
  9 14  4  0
  9 21  4  0
 10 12  4  0
 10 27  4  0
 11 12  4  0
 11 23  4  0
 13 23  4  0
 13 27  4  0
 14 20  4  0
 15 22  4  0
 16 18  4  0
 16 25  2  0
 16 28  4  0
 21 28  4  0
 24 27  1  0
M  END
$$$$

 Created by Python create_sdf_string function

 28 31  0  0  0  0  0  0  0  0999 V2000
   -1.0054  -13.0622   19.1198 C   0  0  0  0  0  0  0  0  0  0  0  0
    3.1478   -8.5360   28.5161 C   0  0  0  0  0  0  0  0  0  0  0  0
    0.5798   -7.1906   27.9330 C   0  0  0  0  0  0  0  0  0  0  0  0
    0.3978   -5.1561   26.6955 C   0  0  0  0  0  0  0  0  0  0  0  0
    2.3063  -10.0533   30.0125 C   0  0  0  0  0  0  0  0  0  0  0  0
    1.8591   -6.8254   27.4685 N   0  0  0  0  0  0  0  0  0  0  0  0
   -0.2167  -12.1055   18.5568 C   0  0  0  0  0  0  0  0  0  0  0  0
   -2.0661  -10.6994   18.1916 C   0  0  0  0  0  0  0  0  0  0  0  0
    5.2703   -7.5691   27.1123 C   0  0  0  0  0  0  0  0  0  0  0  0
    1.6204   -9.9887   17.2935 C   0  0  0  0  0  0  0  0  0  0  0  0
    1.8931   -7.9265   16.2047 C   0  0  0  0  0  0  0  0  0  0  0  0
    2.4396   -9.0801   16.7132 C   0  0  0  0  0  0  0  0  0  0  0  0
   -0.2575   -8.6234   16.8582 C   0  0  0  0  0  0  0  0  0  0  0  0
    4.0614   -7.0367   27.0106 N   0  0  0  0  0  0  0  0  0  0  0  0
   -2.9133  -11.6279   18.7578 C   0  0  0  0  0  0  0  0  0  0  0  0
    4.5688  -10.1291   29.5758 C   0  0  0  0  0  0  0  0  0  0  0  0
    2.1008   -9.0410   29.1852 N   0  0  0  0  0  0  0  0  0  0  0  0
    3.4829  -10.5697   30.2091 N   0  0  0  0  0  0  0  0  0  0  0  0
   -0.3363   -6.1172   27.5628 C   0  0  0  0  0  0  0  0  0  0  0  0
    3.0331   -7.4400   27.6362 C   0  0  0  0  0  0  0  0  0  0  0  0
    5.4553   -8.5933   27.9644 C   0  0  0  0  0  0  0  0  0  0  0  0
   -2.3870  -12.8440   19.2512 C   0  0  0  0  0  0  0  0  0  0  0  0
    0.5331   -7.6964   16.2751 C   0  0  0  0  0  0  0  0  0  0  0  0
   -0.6740  -10.8737   18.0482 C   0  0  0  0  0  0  0  0  0  0  0  0
    5.6751  -10.5870   29.7637 O   0  0  0  0  0  0  0  0  0  0  0  0
    1.7612   -5.6483   26.7172 C   0  0  0  0  0  0  0  0  0  0  0  0
    0.2221   -9.8326   17.4055 C   0  0  0  0  0  0  0  0  0  0  0  0
    4.3850   -9.0730   28.6745 C   0  0  0  0  0  0  0  0  0  0  0  0
  1  7  4  0
  1 22  4  0
  2 17  4  0
  2 20  4  0
  2 28  4  0
  3  6  1  0
  3 19  1  0
  4 19  1  0
  4 26  1  0
  5 17  4  0
  5 18  4  0
  6 20  1  0
  6 26  1  0
  7 24  4  0
  8 15  4  0
  8 24  4  0
  9 14  4  0
  9 21  4  0
 10 12  4  0
 10 27  4  0
 11 12  4  0
 11 23  4  0
 13 23  4  0
 13 27  4  0
 14 20  4  0
 15 22  4  0
 16 18  4  0
 16 25  2  0
 16 28  4  0
 21 28  4  0
 24 27  1  0
M  END
$$$$

 Created by Python create_sdf_string function

 28 31  0  0  0  0  0  0  0  0999 V2000
   -1.0054  -13.0622   19.1198 C   0  0  0  0  0  0  0  0  0  0  0  0
    3.1478   -8.5360   28.5161 C   0  0  0  0  0  0  0  0  0  0  0  0
    0.5798   -7.1906   27.9330 C   0  0  0  0  0  0  0  0  0  0  0  0
    0.3978   -5.1561   26.6955 C   0  0  0  0  0  0  0  0  0  0  0  0
    2.3063  -10.0533   30.0125 C   0  0  0  0  0  0  0  0  0  0  0  0
    1.8591   -6.8254   27.4685 N   0  0  0  0  0  0  0  0  0  0  0  0
   -0.2167  -12.1055   18.5568 C   0  0  0  0  0  0  0  0  0  0  0  0
   -2.0661  -10.6994   18.1916 C   0  0  0  0  0  0  0  0  0  0  0  0
    5.2703   -7.5691   27.1123 C   0  0  0  0  0  0  0  0  0  0  0  0
    1.6204   -9.9887   17.2935 C   0  0  0  0  0  0  0  0  0  0  0  0
    1.8931   -7.9265   16.2047 C   0  0  0  0  0  0  0  0  0  0  0  0
    2.4396   -9.0801   16.7132 C   0  0  0  0  0  0  0  0  0  0  0  0
   -0.2575   -8.6234   16.8582 C   0  0  0  0  0  0  0  0  0  0  0  0
    4.0614   -7.0367   27.0106 N   0  0  0  0  0  0  0  0  0  0  0  0
   -2.9133  -11.6279   18.7578 C   0  0  0  0  0  0  0  0  0  0  0  0
    4.5688  -10.1291   29.5758 C   0  0  0  0  0  0  0  0  0  0  0  0
    2.1008   -9.0410   29.1852 N   0  0  0  0  0  0  0  0  0  0  0  0
    3.4829  -10.5697   30.2091 N   0  0  0  0  0  0  0  0  0  0  0  0
   -0.3363   -6.1172   27.5628 C   0  0  0  0  0  0  0  0  0  0  0  0
    3.0331   -7.4400   27.6362 C   0  0  0  0  0  0  0  0  0  0  0  0
    5.4553   -8.5933   27.9644 C   0  0  0  0  0  0  0  0  0  0  0  0
   -2.3870  -12.8440   19.2512 C   0  0  0  0  0  0  0  0  0  0  0  0
    0.5331   -7.6964   16.2751 C   0  0  0  0  0  0  0  0  0  0  0  0
   -0.6740  -10.8737   18.0482 C   0  0  0  0  0  0  0  0  0  0  0  0
    5.6751  -10.5870   29.7637 O   0  0  0  0  0  0  0  0  0  0  0  0
    1.7612   -5.6483   26.7172 C   0  0  0  0  0  0  0  0  0  0  0  0
    0.2221   -9.8326   17.4055 C   0  0  0  0  0  0  0  0  0  0  0  0
    4.3850   -9.0730   28.6745 C   0  0  0  0  0  0  0  0  0  0  0  0
  1  7  4  0
  1 22  4  0
  2 17  4  0
  2 20  4  0
  2 28  4  0
  3  6  1  0
  3 19  1  0
  4 19  1  0
  4 26  1  0
  5 17  4  0
  5 18  4  0
  6 20  1  0
  6 26  1  0
  7 24  4  0
  8 15  4  0
  8 24  4  0
  9 14  4  0
  9 21  4  0
 10 12  4  0
 10 27  4  0
 11 12  4  0
 11 23  4  0
 13 23  4  0
 13 27  4  0
 14 20  4  0
 15 22  4  0
 16 18  4  0
 16 25  2  0
 16 28  4  0
 21 28  4  0
 24 27  1  0
M  END
$$$$

 Created by Python create_sdf_string function

 28 31  0  0  0  0  0  0  0  0999 V2000
   -1.0054  -13.0622   19.1198 C   0  0  0  0  0  0  0  0  0  0  0  0
    3.1478   -8.5360   28.5161 C   0  0  0  0  0  0  0  0  0  0  0  0
    0.5798   -7.1906   27.9330 C   0  0  0  0  0  0  0  0  0  0  0  0
    0.3978   -5.1561   26.6955 C   0  0  0  0  0  0  0  0  0  0  0  0
    2.3063  -10.0533   30.0125 C   0  0  0  0  0  0  0  0  0  0  0  0
    1.8591   -6.8254   27.4685 N   0  0  0  0  0  0  0  0  0  0  0  0
   -0.2167  -12.1055   18.5568 C   0  0  0  0  0  0  0  0  0  0  0  0
   -2.0661  -10.6994   18.1916 C   0  0  0  0  0  0  0  0  0  0  0  0
    5.2703   -7.5691   27.1123 C   0  0  0  0  0  0  0  0  0  0  0  0
    1.6204   -9.9887   17.2935 C   0  0  0  0  0  0  0  0  0  0  0  0
    1.8931   -7.9265   16.2047 C   0  0  0  0  0  0  0  0  0  0  0  0
    2.4396   -9.0801   16.7132 C   0  0  0  0  0  0  0  0  0  0  0  0
   -0.2575   -8.6234   16.8582 C   0  0  0  0  0  0  0  0  0  0  0  0
    4.0614   -7.0367   27.0106 N   0  0  0  0  0  0  0  0  0  0  0  0
   -2.9133  -11.6279   18.7578 C   0  0  0  0  0  0  0  0  0  0  0  0
    4.5688  -10.1291   29.5758 C   0  0  0  0  0  0  0  0  0  0  0  0
    2.1008   -9.0410   29.1852 N   0  0  0  0  0  0  0  0  0  0  0  0
    3.4829  -10.5697   30.2091 N   0  0  0  0  0  0  0  0  0  0  0  0
   -0.3363   -6.1172   27.5628 C   0  0  0  0  0  0  0  0  0  0  0  0
    3.0331   -7.4400   27.6362 C   0  0  0  0  0  0  0  0  0  0  0  0
    5.4553   -8.5933   27.9644 C   0  0  0  0  0  0  0  0  0  0  0  0
   -2.3870  -12.8440   19.2512 C   0  0  0  0  0  0  0  0  0  0  0  0
    0.5331   -7.6964   16.2751 C   0  0  0  0  0  0  0  0  0  0  0  0
   -0.6740  -10.8737   18.0482 C   0  0  0  0  0  0  0  0  0  0  0  0
    5.6751  -10.5870   29.7637 O   0  0  0  0  0  0  0  0  0  0  0  0
    1.7612   -5.6483   26.7172 C   0  0  0  0  0  0  0  0  0  0  0  0
    0.2221   -9.8326   17.4055 C   0  0  0  0  0  0  0  0  0  0  0  0
    4.3850   -9.0730   28.6745 C   0  0  0  0  0  0  0  0  0  0  0  0
  1  7  4  0
  1 22  4  0
  2 17  4  0
  2 20  4  0
  2 28  4  0
  3  6  1  0
  3 19  1  0
  4 19  1  0
  4 26  1  0
  5 17  4  0
  5 18  4  0
  6 20  1  0
  6 26  1  0
  7 24  4  0
  8 15  4  0
  8 24  4  0
  9 14  4  0
  9 21  4  0
 10 12  4  0
 10 27  4  0
 11 12  4  0
 11 23  4  0
 13 23  4  0
 13 27  4  0
 14 20  4  0
 15 22  4  0
 16 18  4  0
 16 25  2  0
 16 28  4  0
 21 28  4  0
 24 27  1  0
M  END
$$$$

 Created by Python create_sdf_string function

 28 31  0  0  0  0  0  0  0  0999 V2000
   -1.0054  -13.0622   19.1198 C   0  0  0  0  0  0  0  0  0  0  0  0
    3.1478   -8.5360   28.5161 C   0  0  0  0  0  0  0  0  0  0  0  0
    0.5798   -7.1906   27.9330 C   0  0  0  0  0  0  0  0  0  0  0  0
    0.3978   -5.1561   26.6955 C   0  0  0  0  0  0  0  0  0  0  0  0
    2.3063  -10.0533   30.0125 C   0  0  0  0  0  0  0  0  0  0  0  0
    1.8591   -6.8254   27.4685 N   0  0  0  0  0  0  0  0  0  0  0  0
   -0.2167  -12.1055   18.5568 C   0  0  0  0  0  0  0  0  0  0  0  0
   -2.0661  -10.6994   18.1916 C   0  0  0  0  0  0  0  0  0  0  0  0
    5.2703   -7.5691   27.1123 C   0  0  0  0  0  0  0  0  0  0  0  0
    1.6204   -9.9887   17.2935 C   0  0  0  0  0  0  0  0  0  0  0  0
    1.8931   -7.9265   16.2047 C   0  0  0  0  0  0  0  0  0  0  0  0
    2.4396   -9.0801   16.7132 C   0  0  0  0  0  0  0  0  0  0  0  0
   -0.2575   -8.6234   16.8582 C   0  0  0  0  0  0  0  0  0  0  0  0
    4.0614   -7.0367   27.0106 N   0  0  0  0  0  0  0  0  0  0  0  0
   -2.9133  -11.6279   18.7578 C   0  0  0  0  0  0  0  0  0  0  0  0
    4.5688  -10.1291   29.5758 C   0  0  0  0  0  0  0  0  0  0  0  0
    2.1008   -9.0410   29.1852 N   0  0  0  0  0  0  0  0  0  0  0  0
    3.4829  -10.5697   30.2091 N   0  0  0  0  0  0  0  0  0  0  0  0
   -0.3363   -6.1172   27.5628 C   0  0  0  0  0  0  0  0  0  0  0  0
    3.0331   -7.4400   27.6362 C   0  0  0  0  0  0  0  0  0  0  0  0
    5.4553   -8.5933   27.9644 C   0  0  0  0  0  0  0  0  0  0  0  0
   -2.3870  -12.8440   19.2512 C   0  0  0  0  0  0  0  0  0  0  0  0
    0.5331   -7.6964   16.2751 C   0  0  0  0  0  0  0  0  0  0  0  0
   -0.6740  -10.8737   18.0482 C   0  0  0  0  0  0  0  0  0  0  0  0
    5.6751  -10.5870   29.7637 O   0  0  0  0  0  0  0  0  0  0  0  0
    1.7612   -5.6483   26.7172 C   0  0  0  0  0  0  0  0  0  0  0  0
    0.2221   -9.8326   17.4055 C   0  0  0  0  0  0  0  0  0  0  0  0
    4.3850   -9.0730   28.6745 C   0  0  0  0  0  0  0  0  0  0  0  0
  1  7  4  0
  1 22  4  0
  2 17  4  0
  2 20  4  0
  2 28  4  0
  3  6  1  0
  3 19  1  0
  4 19  1  0
  4 26  1  0
  5 17  4  0
  5 18  4  0
  6 20  1  0
  6 26  1  0
  7 24  4  0
  8 15  4  0
  8 24  4  0
  9 14  4  0
  9 21  4  0
 10 12  4  0
 10 27  4  0
 11 12  4  0
 11 23  4  0
 13 23  4  0
 13 27  4  0
 14 20  4  0
 15 22  4  0
 16 18  4  0
 16 25  2  0
 16 28  4  0
 21 28  4  0
 24 27  1  0
M  END
$$$$

 Created by Python create_sdf_string function

 28 31  0  0  0  0  0  0  0  0999 V2000
   -1.0054  -13.0622   19.1198 C   0  0  0  0  0  0  0  0  0  0  0  0
    3.1478   -8.5360   28.5161 C   0  0  0  0  0  0  0  0  0  0  0  0
    0.5798   -7.1906   27.9330 C   0  0  0  0  0  0  0  0  0  0  0  0
    0.3978   -5.1561   26.6955 C   0  0  0  0  0  0  0  0  0  0  0  0
    2.3063  -10.0533   30.0125 C   0  0  0  0  0  0  0  0  0  0  0  0
    1.8591   -6.8254   27.4685 N   0  0  0  0  0  0  0  0  0  0  0  0
   -0.2167  -12.1055   18.5568 C   0  0  0  0  0  0  0  0  0  0  0  0
   -2.0661  -10.6994   18.1916 C   0  0  0  0  0  0  0  0  0  0  0  0
    5.2703   -7.5691   27.1123 C   0  0  0  0  0  0  0  0  0  0  0  0
    1.6204   -9.9887   17.2935 C   0  0  0  0  0  0  0  0  0  0  0  0
    1.8931   -7.9265   16.2047 C   0  0  0  0  0  0  0  0  0  0  0  0
    2.4396   -9.0801   16.7132 C   0  0  0  0  0  0  0  0  0  0  0  0
   -0.2575   -8.6234   16.8582 C   0  0  0  0  0  0  0  0  0  0  0  0
    4.0614   -7.0367   27.0106 N   0  0  0  0  0  0  0  0  0  0  0  0
   -2.9133  -11.6279   18.7578 C   0  0  0  0  0  0  0  0  0  0  0  0
    4.5688  -10.1291   29.5758 C   0  0  0  0  0  0  0  0  0  0  0  0
    2.1008   -9.0410   29.1852 N   0  0  0  0  0  0  0  0  0  0  0  0
    3.4829  -10.5697   30.2091 N   0  0  0  0  0  0  0  0  0  0  0  0
   -0.3363   -6.1172   27.5628 C   0  0  0  0  0  0  0  0  0  0  0  0
    3.0331   -7.4400   27.6362 C   0  0  0  0  0  0  0  0  0  0  0  0
    5.4553   -8.5933   27.9644 C   0  0  0  0  0  0  0  0  0  0  0  0
   -2.3870  -12.8440   19.2512 C   0  0  0  0  0  0  0  0  0  0  0  0
    0.5331   -7.6964   16.2751 C   0  0  0  0  0  0  0  0  0  0  0  0
   -0.6740  -10.8737   18.0482 C   0  0  0  0  0  0  0  0  0  0  0  0
    5.6751  -10.5870   29.7637 O   0  0  0  0  0  0  0  0  0  0  0  0
    1.7612   -5.6483   26.7172 C   0  0  0  0  0  0  0  0  0  0  0  0
    0.2221   -9.8326   17.4055 C   0  0  0  0  0  0  0  0  0  0  0  0
    4.3850   -9.0730   28.6745 C   0  0  0  0  0  0  0  0  0  0  0  0
  1  7  4  0
  1 22  4  0
  2 17  4  0
  2 20  4  0
  2 28  4  0
  3  6  1  0
  3 19  1  0
  4 19  1  0
  4 26  1  0
  5 17  4  0
  5 18  4  0
  6 20  1  0
  6 26  1  0
  7 24  4  0
  8 15  4  0
  8 24  4  0
  9 14  4  0
  9 21  4  0
 10 12  4  0
 10 27  4  0
 11 12  4  0
 11 23  4  0
 13 23  4  0
 13 27  4  0
 14 20  4  0
 15 22  4  0
 16 18  4  0
 16 25  2  0
 16 28  4  0
 21 28  4  0
 24 27  1  0
M  END
$$$$

 Created by Python create_sdf_string function

 28 31  0  0  0  0  0  0  0  0999 V2000
   -1.0054  -13.0622   19.1198 C   0  0  0  0  0  0  0  0  0  0  0  0
    3.1478   -8.5360   28.5161 C   0  0  0  0  0  0  0  0  0  0  0  0
    0.5798   -7.1906   27.9330 C   0  0  0  0  0  0  0  0  0  0  0  0
    0.3978   -5.1561   26.6955 C   0  0  0  0  0  0  0  0  0  0  0  0
    2.3063  -10.0533   30.0125 C   0  0  0  0  0  0  0  0  0  0  0  0
    1.8591   -6.8254   27.4685 N   0  0  0  0  0  0  0  0  0  0  0  0
   -0.2167  -12.1055   18.5568 C   0  0  0  0  0  0  0  0  0  0  0  0
   -2.0661  -10.6994   18.1916 C   0  0  0  0  0  0  0  0  0  0  0  0
    5.2703   -7.5691   27.1123 C   0  0  0  0  0  0  0  0  0  0  0  0
    1.6204   -9.9887   17.2935 C   0  0  0  0  0  0  0  0  0  0  0  0
    1.8931   -7.9265   16.2047 C   0  0  0  0  0  0  0  0  0  0  0  0
    2.4396   -9.0801   16.7132 C   0  0  0  0  0  0  0  0  0  0  0  0
   -0.2575   -8.6234   16.8582 C   0  0  0  0  0  0  0  0  0  0  0  0
    4.0614   -7.0367   27.0106 N   0  0  0  0  0  0  0  0  0  0  0  0
   -2.9133  -11.6279   18.7578 C   0  0  0  0  0  0  0  0  0  0  0  0
    4.5688  -10.1291   29.5758 C   0  0  0  0  0  0  0  0  0  0  0  0
    2.1008   -9.0410   29.1852 N   0  0  0  0  0  0  0  0  0  0  0  0
    3.4829  -10.5697   30.2091 N   0  0  0  0  0  0  0  0  0  0  0  0
   -0.3363   -6.1172   27.5628 C   0  0  0  0  0  0  0  0  0  0  0  0
    3.0331   -7.4400   27.6362 C   0  0  0  0  0  0  0  0  0  0  0  0
    5.4553   -8.5933   27.9644 C   0  0  0  0  0  0  0  0  0  0  0  0
   -2.3870  -12.8440   19.2512 C   0  0  0  0  0  0  0  0  0  0  0  0
    0.5331   -7.6964   16.2751 C   0  0  0  0  0  0  0  0  0  0  0  0
   -0.6740  -10.8737   18.0482 C   0  0  0  0  0  0  0  0  0  0  0  0
    5.6751  -10.5870   29.7637 O   0  0  0  0  0  0  0  0  0  0  0  0
    1.7612   -5.6483   26.7172 C   0  0  0  0  0  0  0  0  0  0  0  0
    0.2221   -9.8326   17.4055 C   0  0  0  0  0  0  0  0  0  0  0  0
    4.3850   -9.0730   28.6745 C   0  0  0  0  0  0  0  0  0  0  0  0
  1  7  4  0
  1 22  4  0
  2 17  4  0
  2 20  4  0
  2 28  4  0
  3  6  1  0
  3 19  1  0
  4 19  1  0
  4 26  1  0
  5 17  4  0
  5 18  4  0
  6 20  1  0
  6 26  1  0
  7 24  4  0
  8 15  4  0
  8 24  4  0
  9 14  4  0
  9 21  4  0
 10 12  4  0
 10 27  4  0
 11 12  4  0
 11 23  4  0
 13 23  4  0
 13 27  4  0
 14 20  4  0
 15 22  4  0
 16 18  4  0
 16 25  2  0
 16 28  4  0
 21 28  4  0
 24 27  1  0
M  END
$$$$

 Created by Python create_sdf_string function

 28 31  0  0  0  0  0  0  0  0999 V2000
   -1.0054  -13.0622   19.1198 C   0  0  0  0  0  0  0  0  0  0  0  0
    3.1478   -8.5360   28.5161 C   0  0  0  0  0  0  0  0  0  0  0  0
    0.5798   -7.1906   27.9330 C   0  0  0  0  0  0  0  0  0  0  0  0
    0.3978   -5.1561   26.6955 C   0  0  0  0  0  0  0  0  0  0  0  0
    2.3063  -10.0533   30.0125 C   0  0  0  0  0  0  0  0  0  0  0  0
    1.8591   -6.8254   27.4685 N   0  0  0  0  0  0  0  0  0  0  0  0
   -0.2167  -12.1055   18.5568 C   0  0  0  0  0  0  0  0  0  0  0  0
   -2.0661  -10.6994   18.1916 C   0  0  0  0  0  0  0  0  0  0  0  0
    5.2703   -7.5691   27.1123 C   0  0  0  0  0  0  0  0  0  0  0  0
    1.6204   -9.9887   17.2935 C   0  0  0  0  0  0  0  0  0  0  0  0
    1.8931   -7.9265   16.2047 C   0  0  0  0  0  0  0  0  0  0  0  0
    2.4396   -9.0801   16.7132 C   0  0  0  0  0  0  0  0  0  0  0  0
   -0.2575   -8.6234   16.8582 C   0  0  0  0  0  0  0  0  0  0  0  0
    4.0614   -7.0367   27.0106 N   0  0  0  0  0  0  0  0  0  0  0  0
   -2.9133  -11.6279   18.7578 C   0  0  0  0  0  0  0  0  0  0  0  0
    4.5688  -10.1291   29.5758 C   0  0  0  0  0  0  0  0  0  0  0  0
    2.1008   -9.0410   29.1852 N   0  0  0  0  0  0  0  0  0  0  0  0
    3.4829  -10.5697   30.2091 N   0  0  0  0  0  0  0  0  0  0  0  0
   -0.3363   -6.1172   27.5628 C   0  0  0  0  0  0  0  0  0  0  0  0
    3.0331   -7.4400   27.6362 C   0  0  0  0  0  0  0  0  0  0  0  0
    5.4553   -8.5933   27.9644 C   0  0  0  0  0  0  0  0  0  0  0  0
   -2.3870  -12.8440   19.2512 C   0  0  0  0  0  0  0  0  0  0  0  0
    0.5331   -7.6964   16.2751 C   0  0  0  0  0  0  0  0  0  0  0  0
   -0.6740  -10.8737   18.0482 C   0  0  0  0  0  0  0  0  0  0  0  0
    5.6751  -10.5870   29.7637 O   0  0  0  0  0  0  0  0  0  0  0  0
    1.7612   -5.6483   26.7172 C   0  0  0  0  0  0  0  0  0  0  0  0
    0.2221   -9.8326   17.4055 C   0  0  0  0  0  0  0  0  0  0  0  0
    4.3850   -9.0730   28.6745 C   0  0  0  0  0  0  0  0  0  0  0  0
  1  7  4  0
  1 22  4  0
  2 17  4  0
  2 20  4  0
  2 28  4  0
  3  6  1  0
  3 19  1  0
  4 19  1  0
  4 26  1  0
  5 17  4  0
  5 18  4  0
  6 20  1  0
  6 26  1  0
  7 24  4  0
  8 15  4  0
  8 24  4  0
  9 14  4  0
  9 21  4  0
 10 12  4  0
 10 27  4  0
 11 12  4  0
 11 23  4  0
 13 23  4  0
 13 27  4  0
 14 20  4  0
 15 22  4  0
 16 18  4  0
 16 25  2  0
 16 28  4  0
 21 28  4  0
 24 27  1  0
M  END
$$$$

 Created by Python create_sdf_string function

 28 31  0  0  0  0  0  0  0  0999 V2000
   -1.0054  -13.0622   19.1198 C   0  0  0  0  0  0  0  0  0  0  0  0
    3.1478   -8.5360   28.5161 C   0  0  0  0  0  0  0  0  0  0  0  0
    0.5798   -7.1906   27.9330 C   0  0  0  0  0  0  0  0  0  0  0  0
    0.3978   -5.1561   26.6955 C   0  0  0  0  0  0  0  0  0  0  0  0
    2.3063  -10.0533   30.0125 C   0  0  0  0  0  0  0  0  0  0  0  0
    1.8591   -6.8254   27.4685 N   0  0  0  0  0  0  0  0  0  0  0  0
   -0.2167  -12.1055   18.5568 C   0  0  0  0  0  0  0  0  0  0  0  0
   -2.0661  -10.6994   18.1916 C   0  0  0  0  0  0  0  0  0  0  0  0
    5.2703   -7.5691   27.1123 C   0  0  0  0  0  0  0  0  0  0  0  0
    1.6204   -9.9887   17.2935 C   0  0  0  0  0  0  0  0  0  0  0  0
    1.8931   -7.9265   16.2047 C   0  0  0  0  0  0  0  0  0  0  0  0
    2.4396   -9.0801   16.7132 C   0  0  0  0  0  0  0  0  0  0  0  0
   -0.2575   -8.6234   16.8582 C   0  0  0  0  0  0  0  0  0  0  0  0
    4.0614   -7.0367   27.0106 N   0  0  0  0  0  0  0  0  0  0  0  0
   -2.9133  -11.6279   18.7578 C   0  0  0  0  0  0  0  0  0  0  0  0
    4.5688  -10.1291   29.5758 C   0  0  0  0  0  0  0  0  0  0  0  0
    2.1008   -9.0410   29.1852 N   0  0  0  0  0  0  0  0  0  0  0  0
    3.4829  -10.5697   30.2091 N   0  0  0  0  0  0  0  0  0  0  0  0
   -0.3363   -6.1172   27.5628 C   0  0  0  0  0  0  0  0  0  0  0  0
    3.0331   -7.4400   27.6362 C   0  0  0  0  0  0  0  0  0  0  0  0
    5.4553   -8.5933   27.9644 C   0  0  0  0  0  0  0  0  0  0  0  0
   -2.3870  -12.8440   19.2512 C   0  0  0  0  0  0  0  0  0  0  0  0
    0.5331   -7.6964   16.2751 C   0  0  0  0  0  0  0  0  0  0  0  0
   -0.6740  -10.8737   18.0482 C   0  0  0  0  0  0  0  0  0  0  0  0
    5.6751  -10.5870   29.7637 O   0  0  0  0  0  0  0  0  0  0  0  0
    1.7612   -5.6483   26.7172 C   0  0  0  0  0  0  0  0  0  0  0  0
    0.2221   -9.8326   17.4055 C   0  0  0  0  0  0  0  0  0  0  0  0
    4.3850   -9.0730   28.6745 C   0  0  0  0  0  0  0  0  0  0  0  0
  1  7  4  0
  1 22  4  0
  2 17  4  0
  2 20  4  0
  2 28  4  0
  3  6  1  0
  3 19  1  0
  4 19  1  0
  4 26  1  0
  5 17  4  0
  5 18  4  0
  6 20  1  0
  6 26  1  0
  7 24  4  0
  8 15  4  0
  8 24  4  0
  9 14  4  0
  9 21  4  0
 10 12  4  0
 10 27  4  0
 11 12  4  0
 11 23  4  0
 13 23  4  0
 13 27  4  0
 14 20  4  0
 15 22  4  0
 16 18  4  0
 16 25  2  0
 16 28  4  0
 21 28  4  0
 24 27  1  0
M  END
$$$$

 Created by Python create_sdf_string function

 28 31  0  0  0  0  0  0  0  0999 V2000
   -1.0054  -13.0622   19.1198 C   0  0  0  0  0  0  0  0  0  0  0  0
    3.1478   -8.5360   28.5161 C   0  0  0  0  0  0  0  0  0  0  0  0
    0.5798   -7.1906   27.9330 C   0  0  0  0  0  0  0  0  0  0  0  0
    0.3978   -5.1561   26.6955 C   0  0  0  0  0  0  0  0  0  0  0  0
    2.3063  -10.0533   30.0125 C   0  0  0  0  0  0  0  0  0  0  0  0
    1.8591   -6.8254   27.4685 N   0  0  0  0  0  0  0  0  0  0  0  0
   -0.2167  -12.1055   18.5568 C   0  0  0  0  0  0  0  0  0  0  0  0
   -2.0661  -10.6994   18.1916 C   0  0  0  0  0  0  0  0  0  0  0  0
    5.2703   -7.5691   27.1123 C   0  0  0  0  0  0  0  0  0  0  0  0
    1.6204   -9.9887   17.2935 C   0  0  0  0  0  0  0  0  0  0  0  0
    1.8931   -7.9265   16.2047 C   0  0  0  0  0  0  0  0  0  0  0  0
    2.4396   -9.0801   16.7132 C   0  0  0  0  0  0  0  0  0  0  0  0
   -0.2575   -8.6234   16.8582 C   0  0  0  0  0  0  0  0  0  0  0  0
    4.0614   -7.0367   27.0106 N   0  0  0  0  0  0  0  0  0  0  0  0
   -2.9133  -11.6279   18.7578 C   0  0  0  0  0  0  0  0  0  0  0  0
    4.5688  -10.1291   29.5758 C   0  0  0  0  0  0  0  0  0  0  0  0
    2.1008   -9.0410   29.1852 N   0  0  0  0  0  0  0  0  0  0  0  0
    3.4829  -10.5697   30.2091 N   0  0  0  0  0  0  0  0  0  0  0  0
   -0.3363   -6.1172   27.5628 C   0  0  0  0  0  0  0  0  0  0  0  0
    3.0331   -7.4400   27.6362 C   0  0  0  0  0  0  0  0  0  0  0  0
    5.4553   -8.5933   27.9644 C   0  0  0  0  0  0  0  0  0  0  0  0
   -2.3870  -12.8440   19.2512 C   0  0  0  0  0  0  0  0  0  0  0  0
    0.5331   -7.6964   16.2751 C   0  0  0  0  0  0  0  0  0  0  0  0
   -0.6740  -10.8737   18.0482 C   0  0  0  0  0  0  0  0  0  0  0  0
    5.6751  -10.5870   29.7637 O   0  0  0  0  0  0  0  0  0  0  0  0
    1.7612   -5.6483   26.7172 C   0  0  0  0  0  0  0  0  0  0  0  0
    0.2221   -9.8326   17.4055 C   0  0  0  0  0  0  0  0  0  0  0  0
    4.3850   -9.0730   28.6745 C   0  0  0  0  0  0  0  0  0  0  0  0
  1  7  4  0
  1 22  4  0
  2 17  4  0
  2 20  4  0
  2 28  4  0
  3  6  1  0
  3 19  1  0
  4 19  1  0
  4 26  1  0
  5 17  4  0
  5 18  4  0
  6 20  1  0
  6 26  1  0
  7 24  4  0
  8 15  4  0
  8 24  4  0
  9 14  4  0
  9 21  4  0
 10 12  4  0
 10 27  4  0
 11 12  4  0
 11 23  4  0
 13 23  4  0
 13 27  4  0
 14 20  4  0
 15 22  4  0
 16 18  4  0
 16 25  2  0
 16 28  4  0
 21 28  4  0
 24 27  1  0
M  END
$$$$

 Created by Python create_sdf_string function

 28 31  0  0  0  0  0  0  0  0999 V2000
   -1.0054  -13.0622   19.1198 C   0  0  0  0  0  0  0  0  0  0  0  0
    3.1478   -8.5360   28.5161 C   0  0  0  0  0  0  0  0  0  0  0  0
    0.5798   -7.1906   27.9330 C   0  0  0  0  0  0  0  0  0  0  0  0
    0.3978   -5.1561   26.6955 C   0  0  0  0  0  0  0  0  0  0  0  0
    2.3063  -10.0533   30.0125 C   0  0  0  0  0  0  0  0  0  0  0  0
    1.8591   -6.8254   27.4685 N   0  0  0  0  0  0  0  0  0  0  0  0
   -0.2167  -12.1055   18.5568 C   0  0  0  0  0  0  0  0  0  0  0  0
   -2.0661  -10.6994   18.1916 C   0  0  0  0  0  0  0  0  0  0  0  0
    5.2703   -7.5691   27.1123 C   0  0  0  0  0  0  0  0  0  0  0  0
    1.6204   -9.9887   17.2935 C   0  0  0  0  0  0  0  0  0  0  0  0
    1.8931   -7.9265   16.2047 C   0  0  0  0  0  0  0  0  0  0  0  0
    2.4396   -9.0801   16.7132 C   0  0  0  0  0  0  0  0  0  0  0  0
   -0.2575   -8.6234   16.8582 C   0  0  0  0  0  0  0  0  0  0  0  0
    4.0614   -7.0367   27.0106 N   0  0  0  0  0  0  0  0  0  0  0  0
   -2.9133  -11.6279   18.7578 C   0  0  0  0  0  0  0  0  0  0  0  0
    4.5688  -10.1291   29.5758 C   0  0  0  0  0  0  0  0  0  0  0  0
    2.1008   -9.0410   29.1852 N   0  0  0  0  0  0  0  0  0  0  0  0
    3.4829  -10.5697   30.2091 N   0  0  0  0  0  0  0  0  0  0  0  0
   -0.3363   -6.1172   27.5628 C   0  0  0  0  0  0  0  0  0  0  0  0
    3.0331   -7.4400   27.6362 C   0  0  0  0  0  0  0  0  0  0  0  0
    5.4553   -8.5933   27.9644 C   0  0  0  0  0  0  0  0  0  0  0  0
   -2.3870  -12.8440   19.2512 C   0  0  0  0  0  0  0  0  0  0  0  0
    0.5331   -7.6964   16.2751 C   0  0  0  0  0  0  0  0  0  0  0  0
   -0.6740  -10.8737   18.0482 C   0  0  0  0  0  0  0  0  0  0  0  0
    5.6751  -10.5870   29.7637 O   0  0  0  0  0  0  0  0  0  0  0  0
    1.7612   -5.6483   26.7172 C   0  0  0  0  0  0  0  0  0  0  0  0
    0.2221   -9.8326   17.4055 C   0  0  0  0  0  0  0  0  0  0  0  0
    4.3850   -9.0730   28.6745 C   0  0  0  0  0  0  0  0  0  0  0  0
  1  7  4  0
  1 22  4  0
  2 17  4  0
  2 20  4  0
  2 28  4  0
  3  6  1  0
  3 19  1  0
  4 19  1  0
  4 26  1  0
  5 17  4  0
  5 18  4  0
  6 20  1  0
  6 26  1  0
  7 24  4  0
  8 15  4  0
  8 24  4  0
  9 14  4  0
  9 21  4  0
 10 12  4  0
 10 27  4  0
 11 12  4  0
 11 23  4  0
 13 23  4  0
 13 27  4  0
 14 20  4  0
 15 22  4  0
 16 18  4  0
 16 25  2  0
 16 28  4  0
 21 28  4  0
 24 27  1  0
M  END
$$$$

 Created by Python create_sdf_string function

 28 31  0  0  0  0  0  0  0  0999 V2000
   -1.0054  -13.0622   19.1198 C   0  0  0  0  0  0  0  0  0  0  0  0
    3.1478   -8.5360   28.5161 C   0  0  0  0  0  0  0  0  0  0  0  0
    0.5798   -7.1906   27.9330 C   0  0  0  0  0  0  0  0  0  0  0  0
    0.3978   -5.1561   26.6955 C   0  0  0  0  0  0  0  0  0  0  0  0
    2.3063  -10.0533   30.0125 C   0  0  0  0  0  0  0  0  0  0  0  0
    1.8591   -6.8254   27.4685 N   0  0  0  0  0  0  0  0  0  0  0  0
   -0.2167  -12.1055   18.5568 C   0  0  0  0  0  0  0  0  0  0  0  0
   -2.0661  -10.6994   18.1916 C   0  0  0  0  0  0  0  0  0  0  0  0
    5.2703   -7.5691   27.1123 C   0  0  0  0  0  0  0  0  0  0  0  0
    1.6204   -9.9887   17.2935 C   0  0  0  0  0  0  0  0  0  0  0  0
    1.8931   -7.9265   16.2047 C   0  0  0  0  0  0  0  0  0  0  0  0
    2.4396   -9.0801   16.7132 C   0  0  0  0  0  0  0  0  0  0  0  0
   -0.2575   -8.6234   16.8582 C   0  0  0  0  0  0  0  0  0  0  0  0
    4.0614   -7.0367   27.0106 N   0  0  0  0  0  0  0  0  0  0  0  0
   -2.9133  -11.6279   18.7578 C   0  0  0  0  0  0  0  0  0  0  0  0
    4.5688  -10.1291   29.5758 C   0  0  0  0  0  0  0  0  0  0  0  0
    2.1008   -9.0410   29.1852 N   0  0  0  0  0  0  0  0  0  0  0  0
    3.4829  -10.5697   30.2091 N   0  0  0  0  0  0  0  0  0  0  0  0
   -0.3363   -6.1172   27.5628 C   0  0  0  0  0  0  0  0  0  0  0  0
    3.0331   -7.4400   27.6362 C   0  0  0  0  0  0  0  0  0  0  0  0
    5.4553   -8.5933   27.9644 C   0  0  0  0  0  0  0  0  0  0  0  0
   -2.3870  -12.8440   19.2512 C   0  0  0  0  0  0  0  0  0  0  0  0
    0.5331   -7.6964   16.2751 C   0  0  0  0  0  0  0  0  0  0  0  0
   -0.6740  -10.8737   18.0482 C   0  0  0  0  0  0  0  0  0  0  0  0
    5.6751  -10.5870   29.7637 O   0  0  0  0  0  0  0  0  0  0  0  0
    1.7612   -5.6483   26.7172 C   0  0  0  0  0  0  0  0  0  0  0  0
    0.2221   -9.8326   17.4055 C   0  0  0  0  0  0  0  0  0  0  0  0
    4.3850   -9.0730   28.6745 C   0  0  0  0  0  0  0  0  0  0  0  0
  1  7  4  0
  1 22  4  0
  2 17  4  0
  2 20  4  0
  2 28  4  0
  3  6  1  0
  3 19  1  0
  4 19  1  0
  4 26  1  0
  5 17  4  0
  5 18  4  0
  6 20  1  0
  6 26  1  0
  7 24  4  0
  8 15  4  0
  8 24  4  0
  9 14  4  0
  9 21  4  0
 10 12  4  0
 10 27  4  0
 11 12  4  0
 11 23  4  0
 13 23  4  0
 13 27  4  0
 14 20  4  0
 15 22  4  0
 16 18  4  0
 16 25  2  0
 16 28  4  0
 21 28  4  0
 24 27  1  0
M  END
$$$$

 Created by Python create_sdf_string function

 28 31  0  0  0  0  0  0  0  0999 V2000
   -1.0054  -13.0622   19.1198 C   0  0  0  0  0  0  0  0  0  0  0  0
    3.1478   -8.5360   28.5161 C   0  0  0  0  0  0  0  0  0  0  0  0
    0.5798   -7.1906   27.9330 C   0  0  0  0  0  0  0  0  0  0  0  0
    0.3978   -5.1561   26.6955 C   0  0  0  0  0  0  0  0  0  0  0  0
    2.3063  -10.0533   30.0125 C   0  0  0  0  0  0  0  0  0  0  0  0
    1.8591   -6.8254   27.4685 N   0  0  0  0  0  0  0  0  0  0  0  0
   -0.2167  -12.1055   18.5568 C   0  0  0  0  0  0  0  0  0  0  0  0
   -2.0661  -10.6994   18.1916 C   0  0  0  0  0  0  0  0  0  0  0  0
    5.2703   -7.5691   27.1123 C   0  0  0  0  0  0  0  0  0  0  0  0
    1.6204   -9.9887   17.2935 C   0  0  0  0  0  0  0  0  0  0  0  0
    1.8931   -7.9265   16.2047 C   0  0  0  0  0  0  0  0  0  0  0  0
    2.4396   -9.0801   16.7132 C   0  0  0  0  0  0  0  0  0  0  0  0
   -0.2575   -8.6234   16.8582 C   0  0  0  0  0  0  0  0  0  0  0  0
    4.0614   -7.0367   27.0106 N   0  0  0  0  0  0  0  0  0  0  0  0
   -2.9133  -11.6279   18.7578 C   0  0  0  0  0  0  0  0  0  0  0  0
    4.5688  -10.1291   29.5758 C   0  0  0  0  0  0  0  0  0  0  0  0
    2.1008   -9.0410   29.1852 N   0  0  0  0  0  0  0  0  0  0  0  0
    3.4829  -10.5697   30.2091 N   0  0  0  0  0  0  0  0  0  0  0  0
   -0.3363   -6.1172   27.5628 C   0  0  0  0  0  0  0  0  0  0  0  0
    3.0331   -7.4400   27.6362 C   0  0  0  0  0  0  0  0  0  0  0  0
    5.4553   -8.5933   27.9644 C   0  0  0  0  0  0  0  0  0  0  0  0
   -2.3870  -12.8440   19.2512 C   0  0  0  0  0  0  0  0  0  0  0  0
    0.5331   -7.6964   16.2751 C   0  0  0  0  0  0  0  0  0  0  0  0
   -0.6740  -10.8737   18.0482 C   0  0  0  0  0  0  0  0  0  0  0  0
    5.6751  -10.5870   29.7637 O   0  0  0  0  0  0  0  0  0  0  0  0
    1.7612   -5.6483   26.7172 C   0  0  0  0  0  0  0  0  0  0  0  0
    0.2221   -9.8326   17.4055 C   0  0  0  0  0  0  0  0  0  0  0  0
    4.3850   -9.0730   28.6745 C   0  0  0  0  0  0  0  0  0  0  0  0
  1  7  4  0
  1 22  4  0
  2 17  4  0
  2 20  4  0
  2 28  4  0
  3  6  1  0
  3 19  1  0
  4 19  1  0
  4 26  1  0
  5 17  4  0
  5 18  4  0
  6 20  1  0
  6 26  1  0
  7 24  4  0
  8 15  4  0
  8 24  4  0
  9 14  4  0
  9 21  4  0
 10 12  4  0
 10 27  4  0
 11 12  4  0
 11 23  4  0
 13 23  4  0
 13 27  4  0
 14 20  4  0
 15 22  4  0
 16 18  4  0
 16 25  2  0
 16 28  4  0
 21 28  4  0
 24 27  1  0
M  END
$$$$

 Created by Python create_sdf_string function

 28 31  0  0  0  0  0  0  0  0999 V2000
   -1.0054  -13.0622   19.1198 C   0  0  0  0  0  0  0  0  0  0  0  0
    3.1478   -8.5360   28.5161 C   0  0  0  0  0  0  0  0  0  0  0  0
    0.5798   -7.1906   27.9330 C   0  0  0  0  0  0  0  0  0  0  0  0
    0.3978   -5.1561   26.6955 C   0  0  0  0  0  0  0  0  0  0  0  0
    2.3063  -10.0533   30.0125 C   0  0  0  0  0  0  0  0  0  0  0  0
    1.8591   -6.8254   27.4685 N   0  0  0  0  0  0  0  0  0  0  0  0
   -0.2167  -12.1055   18.5568 C   0  0  0  0  0  0  0  0  0  0  0  0
   -2.0661  -10.6994   18.1916 C   0  0  0  0  0  0  0  0  0  0  0  0
    5.2703   -7.5691   27.1123 C   0  0  0  0  0  0  0  0  0  0  0  0
    1.6204   -9.9887   17.2935 C   0  0  0  0  0  0  0  0  0  0  0  0
    1.8931   -7.9265   16.2047 C   0  0  0  0  0  0  0  0  0  0  0  0
    2.4396   -9.0801   16.7132 C   0  0  0  0  0  0  0  0  0  0  0  0
   -0.2575   -8.6234   16.8582 C   0  0  0  0  0  0  0  0  0  0  0  0
    4.0614   -7.0367   27.0106 N   0  0  0  0  0  0  0  0  0  0  0  0
   -2.9133  -11.6279   18.7578 C   0  0  0  0  0  0  0  0  0  0  0  0
    4.5688  -10.1291   29.5758 C   0  0  0  0  0  0  0  0  0  0  0  0
    2.1008   -9.0410   29.1852 N   0  0  0  0  0  0  0  0  0  0  0  0
    3.4829  -10.5697   30.2091 N   0  0  0  0  0  0  0  0  0  0  0  0
   -0.3363   -6.1172   27.5628 C   0  0  0  0  0  0  0  0  0  0  0  0
    3.0331   -7.4400   27.6362 C   0  0  0  0  0  0  0  0  0  0  0  0
    5.4553   -8.5933   27.9644 C   0  0  0  0  0  0  0  0  0  0  0  0
   -2.3870  -12.8440   19.2512 C   0  0  0  0  0  0  0  0  0  0  0  0
    0.5331   -7.6964   16.2751 C   0  0  0  0  0  0  0  0  0  0  0  0
   -0.6740  -10.8737   18.0482 C   0  0  0  0  0  0  0  0  0  0  0  0
    5.6751  -10.5870   29.7637 O   0  0  0  0  0  0  0  0  0  0  0  0
    1.7612   -5.6483   26.7172 C   0  0  0  0  0  0  0  0  0  0  0  0
    0.2221   -9.8326   17.4055 C   0  0  0  0  0  0  0  0  0  0  0  0
    4.3850   -9.0730   28.6745 C   0  0  0  0  0  0  0  0  0  0  0  0
  1  7  4  0
  1 22  4  0
  2 17  4  0
  2 20  4  0
  2 28  4  0
  3  6  1  0
  3 19  1  0
  4 19  1  0
  4 26  1  0
  5 17  4  0
  5 18  4  0
  6 20  1  0
  6 26  1  0
  7 24  4  0
  8 15  4  0
  8 24  4  0
  9 14  4  0
  9 21  4  0
 10 12  4  0
 10 27  4  0
 11 12  4  0
 11 23  4  0
 13 23  4  0
 13 27  4  0
 14 20  4  0
 15 22  4  0
 16 18  4  0
 16 25  2  0
 16 28  4  0
 21 28  4  0
 24 27  1  0
M  END
$$$$

 Created by Python create_sdf_string function

 28 31  0  0  0  0  0  0  0  0999 V2000
   -1.0054  -13.0622   19.1198 C   0  0  0  0  0  0  0  0  0  0  0  0
    3.1478   -8.5360   28.5161 C   0  0  0  0  0  0  0  0  0  0  0  0
    0.5798   -7.1906   27.9330 C   0  0  0  0  0  0  0  0  0  0  0  0
    0.3978   -5.1561   26.6955 C   0  0  0  0  0  0  0  0  0  0  0  0
    2.3063  -10.0533   30.0125 C   0  0  0  0  0  0  0  0  0  0  0  0
    1.8591   -6.8254   27.4685 N   0  0  0  0  0  0  0  0  0  0  0  0
   -0.2167  -12.1055   18.5568 C   0  0  0  0  0  0  0  0  0  0  0  0
   -2.0661  -10.6994   18.1916 C   0  0  0  0  0  0  0  0  0  0  0  0
    5.2703   -7.5691   27.1123 C   0  0  0  0  0  0  0  0  0  0  0  0
    1.6204   -9.9887   17.2935 C   0  0  0  0  0  0  0  0  0  0  0  0
    1.8931   -7.9265   16.2047 C   0  0  0  0  0  0  0  0  0  0  0  0
    2.4396   -9.0801   16.7132 C   0  0  0  0  0  0  0  0  0  0  0  0
   -0.2575   -8.6234   16.8582 C   0  0  0  0  0  0  0  0  0  0  0  0
    4.0614   -7.0367   27.0106 N   0  0  0  0  0  0  0  0  0  0  0  0
   -2.9133  -11.6279   18.7578 C   0  0  0  0  0  0  0  0  0  0  0  0
    4.5688  -10.1291   29.5758 C   0  0  0  0  0  0  0  0  0  0  0  0
    2.1008   -9.0410   29.1852 N   0  0  0  0  0  0  0  0  0  0  0  0
    3.4829  -10.5697   30.2091 N   0  0  0  0  0  0  0  0  0  0  0  0
   -0.3363   -6.1172   27.5628 C   0  0  0  0  0  0  0  0  0  0  0  0
    3.0331   -7.4400   27.6362 C   0  0  0  0  0  0  0  0  0  0  0  0
    5.4553   -8.5933   27.9644 C   0  0  0  0  0  0  0  0  0  0  0  0
   -2.3870  -12.8440   19.2512 C   0  0  0  0  0  0  0  0  0  0  0  0
    0.5331   -7.6964   16.2751 C   0  0  0  0  0  0  0  0  0  0  0  0
   -0.6740  -10.8737   18.0482 C   0  0  0  0  0  0  0  0  0  0  0  0
    5.6751  -10.5870   29.7637 O   0  0  0  0  0  0  0  0  0  0  0  0
    1.7612   -5.6483   26.7172 C   0  0  0  0  0  0  0  0  0  0  0  0
    0.2221   -9.8326   17.4055 C   0  0  0  0  0  0  0  0  0  0  0  0
    4.3850   -9.0730   28.6745 C   0  0  0  0  0  0  0  0  0  0  0  0
  1  7  4  0
  1 22  4  0
  2 17  4  0
  2 20  4  0
  2 28  4  0
  3  6  1  0
  3 19  1  0
  4 19  1  0
  4 26  1  0
  5 17  4  0
  5 18  4  0
  6 20  1  0
  6 26  1  0
  7 24  4  0
  8 15  4  0
  8 24  4  0
  9 14  4  0
  9 21  4  0
 10 12  4  0
 10 27  4  0
 11 12  4  0
 11 23  4  0
 13 23  4  0
 13 27  4  0
 14 20  4  0
 15 22  4  0
 16 18  4  0
 16 25  2  0
 16 28  4  0
 21 28  4  0
 24 27  1  0
M  END
$$$$

 Created by Python create_sdf_string function

 28 31  0  0  0  0  0  0  0  0999 V2000
   -1.0054  -13.0622   19.1198 C   0  0  0  0  0  0  0  0  0  0  0  0
    3.1478   -8.5360   28.5161 C   0  0  0  0  0  0  0  0  0  0  0  0
    0.5798   -7.1906   27.9330 C   0  0  0  0  0  0  0  0  0  0  0  0
    0.3978   -5.1561   26.6955 C   0  0  0  0  0  0  0  0  0  0  0  0
    2.3063  -10.0533   30.0125 C   0  0  0  0  0  0  0  0  0  0  0  0
    1.8591   -6.8254   27.4685 N   0  0  0  0  0  0  0  0  0  0  0  0
   -0.2167  -12.1055   18.5568 C   0  0  0  0  0  0  0  0  0  0  0  0
   -2.0661  -10.6994   18.1916 C   0  0  0  0  0  0  0  0  0  0  0  0
    5.2703   -7.5691   27.1123 C   0  0  0  0  0  0  0  0  0  0  0  0
    1.6204   -9.9887   17.2935 C   0  0  0  0  0  0  0  0  0  0  0  0
    1.8931   -7.9265   16.2047 C   0  0  0  0  0  0  0  0  0  0  0  0
    2.4396   -9.0801   16.7132 C   0  0  0  0  0  0  0  0  0  0  0  0
   -0.2575   -8.6234   16.8582 C   0  0  0  0  0  0  0  0  0  0  0  0
    4.0614   -7.0367   27.0106 N   0  0  0  0  0  0  0  0  0  0  0  0
   -2.9133  -11.6279   18.7578 C   0  0  0  0  0  0  0  0  0  0  0  0
    4.5688  -10.1291   29.5758 C   0  0  0  0  0  0  0  0  0  0  0  0
    2.1008   -9.0410   29.1852 N   0  0  0  0  0  0  0  0  0  0  0  0
    3.4829  -10.5697   30.2091 N   0  0  0  0  0  0  0  0  0  0  0  0
   -0.3363   -6.1172   27.5628 C   0  0  0  0  0  0  0  0  0  0  0  0
    3.0331   -7.4400   27.6362 C   0  0  0  0  0  0  0  0  0  0  0  0
    5.4553   -8.5933   27.9644 C   0  0  0  0  0  0  0  0  0  0  0  0
   -2.3870  -12.8440   19.2512 C   0  0  0  0  0  0  0  0  0  0  0  0
    0.5331   -7.6964   16.2751 C   0  0  0  0  0  0  0  0  0  0  0  0
   -0.6740  -10.8737   18.0482 C   0  0  0  0  0  0  0  0  0  0  0  0
    5.6751  -10.5870   29.7637 O   0  0  0  0  0  0  0  0  0  0  0  0
    1.7612   -5.6483   26.7172 C   0  0  0  0  0  0  0  0  0  0  0  0
    0.2221   -9.8326   17.4055 C   0  0  0  0  0  0  0  0  0  0  0  0
    4.3850   -9.0730   28.6745 C   0  0  0  0  0  0  0  0  0  0  0  0
  1  7  4  0
  1 22  4  0
  2 17  4  0
  2 20  4  0
  2 28  4  0
  3  6  1  0
  3 19  1  0
  4 19  1  0
  4 26  1  0
  5 17  4  0
  5 18  4  0
  6 20  1  0
  6 26  1  0
  7 24  4  0
  8 15  4  0
  8 24  4  0
  9 14  4  0
  9 21  4  0
 10 12  4  0
 10 27  4  0
 11 12  4  0
 11 23  4  0
 13 23  4  0
 13 27  4  0
 14 20  4  0
 15 22  4  0
 16 18  4  0
 16 25  2  0
 16 28  4  0
 21 28  4  0
 24 27  1  0
M  END
$$$$

 Created by Python create_sdf_string function

 28 31  0  0  0  0  0  0  0  0999 V2000
   -1.0054  -13.0622   19.1198 C   0  0  0  0  0  0  0  0  0  0  0  0
    3.1478   -8.5360   28.5161 C   0  0  0  0  0  0  0  0  0  0  0  0
    0.5798   -7.1906   27.9330 C   0  0  0  0  0  0  0  0  0  0  0  0
    0.3978   -5.1561   26.6955 C   0  0  0  0  0  0  0  0  0  0  0  0
    2.3063  -10.0533   30.0125 C   0  0  0  0  0  0  0  0  0  0  0  0
    1.8591   -6.8254   27.4685 N   0  0  0  0  0  0  0  0  0  0  0  0
   -0.2167  -12.1055   18.5568 C   0  0  0  0  0  0  0  0  0  0  0  0
   -2.0661  -10.6994   18.1916 C   0  0  0  0  0  0  0  0  0  0  0  0
    5.2703   -7.5691   27.1123 C   0  0  0  0  0  0  0  0  0  0  0  0
    1.6204   -9.9887   17.2935 C   0  0  0  0  0  0  0  0  0  0  0  0
    1.8931   -7.9265   16.2047 C   0  0  0  0  0  0  0  0  0  0  0  0
    2.4396   -9.0801   16.7132 C   0  0  0  0  0  0  0  0  0  0  0  0
   -0.2575   -8.6234   16.8582 C   0  0  0  0  0  0  0  0  0  0  0  0
    4.0614   -7.0367   27.0106 N   0  0  0  0  0  0  0  0  0  0  0  0
   -2.9133  -11.6279   18.7578 C   0  0  0  0  0  0  0  0  0  0  0  0
    4.5688  -10.1291   29.5758 C   0  0  0  0  0  0  0  0  0  0  0  0
    2.1008   -9.0410   29.1852 N   0  0  0  0  0  0  0  0  0  0  0  0
    3.4829  -10.5697   30.2091 N   0  0  0  0  0  0  0  0  0  0  0  0
   -0.3363   -6.1172   27.5628 C   0  0  0  0  0  0  0  0  0  0  0  0
    3.0331   -7.4400   27.6362 C   0  0  0  0  0  0  0  0  0  0  0  0
    5.4553   -8.5933   27.9644 C   0  0  0  0  0  0  0  0  0  0  0  0
   -2.3870  -12.8440   19.2512 C   0  0  0  0  0  0  0  0  0  0  0  0
    0.5331   -7.6964   16.2751 C   0  0  0  0  0  0  0  0  0  0  0  0
   -0.6740  -10.8737   18.0482 C   0  0  0  0  0  0  0  0  0  0  0  0
    5.6751  -10.5870   29.7637 O   0  0  0  0  0  0  0  0  0  0  0  0
    1.7612   -5.6483   26.7172 C   0  0  0  0  0  0  0  0  0  0  0  0
    0.2221   -9.8326   17.4055 C   0  0  0  0  0  0  0  0  0  0  0  0
    4.3850   -9.0730   28.6745 C   0  0  0  0  0  0  0  0  0  0  0  0
  1  7  4  0
  1 22  4  0
  2 17  4  0
  2 20  4  0
  2 28  4  0
  3  6  1  0
  3 19  1  0
  4 19  1  0
  4 26  1  0
  5 17  4  0
  5 18  4  0
  6 20  1  0
  6 26  1  0
  7 24  4  0
  8 15  4  0
  8 24  4  0
  9 14  4  0
  9 21  4  0
 10 12  4  0
 10 27  4  0
 11 12  4  0
 11 23  4  0
 13 23  4  0
 13 27  4  0
 14 20  4  0
 15 22  4  0
 16 18  4  0
 16 25  2  0
 16 28  4  0
 21 28  4  0
 24 27  1  0
M  END
$$$$

 Created by Python create_sdf_string function

 28 31  0  0  0  0  0  0  0  0999 V2000
   -1.0054  -13.0622   19.1198 C   0  0  0  0  0  0  0  0  0  0  0  0
    3.1478   -8.5360   28.5161 C   0  0  0  0  0  0  0  0  0  0  0  0
    0.5798   -7.1906   27.9330 C   0  0  0  0  0  0  0  0  0  0  0  0
    0.3978   -5.1561   26.6955 C   0  0  0  0  0  0  0  0  0  0  0  0
    2.3063  -10.0533   30.0125 C   0  0  0  0  0  0  0  0  0  0  0  0
    1.8591   -6.8254   27.4685 N   0  0  0  0  0  0  0  0  0  0  0  0
   -0.2167  -12.1055   18.5568 C   0  0  0  0  0  0  0  0  0  0  0  0
   -2.0661  -10.6994   18.1916 C   0  0  0  0  0  0  0  0  0  0  0  0
    5.2703   -7.5691   27.1123 C   0  0  0  0  0  0  0  0  0  0  0  0
    1.6204   -9.9887   17.2935 C   0  0  0  0  0  0  0  0  0  0  0  0
    1.8931   -7.9265   16.2047 C   0  0  0  0  0  0  0  0  0  0  0  0
    2.4396   -9.0801   16.7132 C   0  0  0  0  0  0  0  0  0  0  0  0
   -0.2575   -8.6234   16.8582 C   0  0  0  0  0  0  0  0  0  0  0  0
    4.0614   -7.0367   27.0106 N   0  0  0  0  0  0  0  0  0  0  0  0
   -2.9133  -11.6279   18.7578 C   0  0  0  0  0  0  0  0  0  0  0  0
    4.5688  -10.1291   29.5758 C   0  0  0  0  0  0  0  0  0  0  0  0
    2.1008   -9.0410   29.1852 N   0  0  0  0  0  0  0  0  0  0  0  0
    3.4829  -10.5697   30.2091 N   0  0  0  0  0  0  0  0  0  0  0  0
   -0.3363   -6.1172   27.5628 C   0  0  0  0  0  0  0  0  0  0  0  0
    3.0331   -7.4400   27.6362 C   0  0  0  0  0  0  0  0  0  0  0  0
    5.4553   -8.5933   27.9644 C   0  0  0  0  0  0  0  0  0  0  0  0
   -2.3870  -12.8440   19.2512 C   0  0  0  0  0  0  0  0  0  0  0  0
    0.5331   -7.6964   16.2751 C   0  0  0  0  0  0  0  0  0  0  0  0
   -0.6740  -10.8737   18.0482 C   0  0  0  0  0  0  0  0  0  0  0  0
    5.6751  -10.5870   29.7637 O   0  0  0  0  0  0  0  0  0  0  0  0
    1.7612   -5.6483   26.7172 C   0  0  0  0  0  0  0  0  0  0  0  0
    0.2221   -9.8326   17.4055 C   0  0  0  0  0  0  0  0  0  0  0  0
    4.3850   -9.0730   28.6745 C   0  0  0  0  0  0  0  0  0  0  0  0
  1  7  4  0
  1 22  4  0
  2 17  4  0
  2 20  4  0
  2 28  4  0
  3  6  1  0
  3 19  1  0
  4 19  1  0
  4 26  1  0
  5 17  4  0
  5 18  4  0
  6 20  1  0
  6 26  1  0
  7 24  4  0
  8 15  4  0
  8 24  4  0
  9 14  4  0
  9 21  4  0
 10 12  4  0
 10 27  4  0
 11 12  4  0
 11 23  4  0
 13 23  4  0
 13 27  4  0
 14 20  4  0
 15 22  4  0
 16 18  4  0
 16 25  2  0
 16 28  4  0
 21 28  4  0
 24 27  1  0
M  END
$$$$

 Created by Python create_sdf_string function

 28 31  0  0  0  0  0  0  0  0999 V2000
   -1.0054  -13.0622   19.1198 C   0  0  0  0  0  0  0  0  0  0  0  0
    3.1478   -8.5360   28.5161 C   0  0  0  0  0  0  0  0  0  0  0  0
    0.5798   -7.1906   27.9330 C   0  0  0  0  0  0  0  0  0  0  0  0
    0.3978   -5.1561   26.6955 C   0  0  0  0  0  0  0  0  0  0  0  0
    2.3063  -10.0533   30.0125 C   0  0  0  0  0  0  0  0  0  0  0  0
    1.8591   -6.8254   27.4685 N   0  0  0  0  0  0  0  0  0  0  0  0
   -0.2167  -12.1055   18.5568 C   0  0  0  0  0  0  0  0  0  0  0  0
   -2.0661  -10.6994   18.1916 C   0  0  0  0  0  0  0  0  0  0  0  0
    5.2703   -7.5691   27.1123 C   0  0  0  0  0  0  0  0  0  0  0  0
    1.6204   -9.9887   17.2935 C   0  0  0  0  0  0  0  0  0  0  0  0
    1.8931   -7.9265   16.2047 C   0  0  0  0  0  0  0  0  0  0  0  0
    2.4396   -9.0801   16.7132 C   0  0  0  0  0  0  0  0  0  0  0  0
   -0.2575   -8.6234   16.8582 C   0  0  0  0  0  0  0  0  0  0  0  0
    4.0614   -7.0367   27.0106 N   0  0  0  0  0  0  0  0  0  0  0  0
   -2.9133  -11.6279   18.7578 C   0  0  0  0  0  0  0  0  0  0  0  0
    4.5688  -10.1291   29.5758 C   0  0  0  0  0  0  0  0  0  0  0  0
    2.1008   -9.0410   29.1852 N   0  0  0  0  0  0  0  0  0  0  0  0
    3.4829  -10.5697   30.2091 N   0  0  0  0  0  0  0  0  0  0  0  0
   -0.3363   -6.1172   27.5628 C   0  0  0  0  0  0  0  0  0  0  0  0
    3.0331   -7.4400   27.6362 C   0  0  0  0  0  0  0  0  0  0  0  0
    5.4553   -8.5933   27.9644 C   0  0  0  0  0  0  0  0  0  0  0  0
   -2.3870  -12.8440   19.2512 C   0  0  0  0  0  0  0  0  0  0  0  0
    0.5331   -7.6964   16.2751 C   0  0  0  0  0  0  0  0  0  0  0  0
   -0.6740  -10.8737   18.0482 C   0  0  0  0  0  0  0  0  0  0  0  0
    5.6751  -10.5870   29.7637 O   0  0  0  0  0  0  0  0  0  0  0  0
    1.7612   -5.6483   26.7172 C   0  0  0  0  0  0  0  0  0  0  0  0
    0.2221   -9.8326   17.4055 C   0  0  0  0  0  0  0  0  0  0  0  0
    4.3850   -9.0730   28.6745 C   0  0  0  0  0  0  0  0  0  0  0  0
  1  7  4  0
  1 22  4  0
  2 17  4  0
  2 20  4  0
  2 28  4  0
  3  6  1  0
  3 19  1  0
  4 19  1  0
  4 26  1  0
  5 17  4  0
  5 18  4  0
  6 20  1  0
  6 26  1  0
  7 24  4  0
  8 15  4  0
  8 24  4  0
  9 14  4  0
  9 21  4  0
 10 12  4  0
 10 27  4  0
 11 12  4  0
 11 23  4  0
 13 23  4  0
 13 27  4  0
 14 20  4  0
 15 22  4  0
 16 18  4  0
 16 25  2  0
 16 28  4  0
 21 28  4  0
 24 27  1  0
M  END
$$$$

 Created by Python create_sdf_string function

 28 31  0  0  0  0  0  0  0  0999 V2000
   -1.0054  -13.0622   19.1198 C   0  0  0  0  0  0  0  0  0  0  0  0
    3.1478   -8.5360   28.5161 C   0  0  0  0  0  0  0  0  0  0  0  0
    0.5798   -7.1906   27.9330 C   0  0  0  0  0  0  0  0  0  0  0  0
    0.3978   -5.1561   26.6955 C   0  0  0  0  0  0  0  0  0  0  0  0
    2.3063  -10.0533   30.0125 C   0  0  0  0  0  0  0  0  0  0  0  0
    1.8591   -6.8254   27.4685 N   0  0  0  0  0  0  0  0  0  0  0  0
   -0.2167  -12.1055   18.5568 C   0  0  0  0  0  0  0  0  0  0  0  0
   -2.0661  -10.6994   18.1916 C   0  0  0  0  0  0  0  0  0  0  0  0
    5.2703   -7.5691   27.1123 C   0  0  0  0  0  0  0  0  0  0  0  0
    1.6204   -9.9887   17.2935 C   0  0  0  0  0  0  0  0  0  0  0  0
    1.8931   -7.9265   16.2047 C   0  0  0  0  0  0  0  0  0  0  0  0
    2.4396   -9.0801   16.7132 C   0  0  0  0  0  0  0  0  0  0  0  0
   -0.2575   -8.6234   16.8582 C   0  0  0  0  0  0  0  0  0  0  0  0
    4.0614   -7.0367   27.0106 N   0  0  0  0  0  0  0  0  0  0  0  0
   -2.9133  -11.6279   18.7578 C   0  0  0  0  0  0  0  0  0  0  0  0
    4.5688  -10.1291   29.5758 C   0  0  0  0  0  0  0  0  0  0  0  0
    2.1008   -9.0410   29.1852 N   0  0  0  0  0  0  0  0  0  0  0  0
    3.4829  -10.5697   30.2091 N   0  0  0  0  0  0  0  0  0  0  0  0
   -0.3363   -6.1172   27.5628 C   0  0  0  0  0  0  0  0  0  0  0  0
    3.0331   -7.4400   27.6362 C   0  0  0  0  0  0  0  0  0  0  0  0
    5.4553   -8.5933   27.9644 C   0  0  0  0  0  0  0  0  0  0  0  0
   -2.3870  -12.8440   19.2512 C   0  0  0  0  0  0  0  0  0  0  0  0
    0.5331   -7.6964   16.2751 C   0  0  0  0  0  0  0  0  0  0  0  0
   -0.6740  -10.8737   18.0482 C   0  0  0  0  0  0  0  0  0  0  0  0
    5.6751  -10.5870   29.7637 O   0  0  0  0  0  0  0  0  0  0  0  0
    1.7612   -5.6483   26.7172 C   0  0  0  0  0  0  0  0  0  0  0  0
    0.2221   -9.8326   17.4055 C   0  0  0  0  0  0  0  0  0  0  0  0
    4.3850   -9.0730   28.6745 C   0  0  0  0  0  0  0  0  0  0  0  0
  1  7  4  0
  1 22  4  0
  2 17  4  0
  2 20  4  0
  2 28  4  0
  3  6  1  0
  3 19  1  0
  4 19  1  0
  4 26  1  0
  5 17  4  0
  5 18  4  0
  6 20  1  0
  6 26  1  0
  7 24  4  0
  8 15  4  0
  8 24  4  0
  9 14  4  0
  9 21  4  0
 10 12  4  0
 10 27  4  0
 11 12  4  0
 11 23  4  0
 13 23  4  0
 13 27  4  0
 14 20  4  0
 15 22  4  0
 16 18  4  0
 16 25  2  0
 16 28  4  0
 21 28  4  0
 24 27  1  0
M  END
$$$$

 Created by Python create_sdf_string function

 28 31  0  0  0  0  0  0  0  0999 V2000
   -1.0054  -13.0622   19.1198 C   0  0  0  0  0  0  0  0  0  0  0  0
    3.1478   -8.5360   28.5161 C   0  0  0  0  0  0  0  0  0  0  0  0
    0.5798   -7.1906   27.9330 C   0  0  0  0  0  0  0  0  0  0  0  0
    0.3978   -5.1561   26.6955 C   0  0  0  0  0  0  0  0  0  0  0  0
    2.3063  -10.0533   30.0125 C   0  0  0  0  0  0  0  0  0  0  0  0
    1.8591   -6.8254   27.4685 N   0  0  0  0  0  0  0  0  0  0  0  0
   -0.2167  -12.1055   18.5568 C   0  0  0  0  0  0  0  0  0  0  0  0
   -2.0661  -10.6994   18.1916 C   0  0  0  0  0  0  0  0  0  0  0  0
    5.2703   -7.5691   27.1123 C   0  0  0  0  0  0  0  0  0  0  0  0
    1.6204   -9.9887   17.2935 C   0  0  0  0  0  0  0  0  0  0  0  0
    1.8931   -7.9265   16.2047 C   0  0  0  0  0  0  0  0  0  0  0  0
    2.4396   -9.0801   16.7132 C   0  0  0  0  0  0  0  0  0  0  0  0
   -0.2575   -8.6234   16.8582 C   0  0  0  0  0  0  0  0  0  0  0  0
    4.0614   -7.0367   27.0106 N   0  0  0  0  0  0  0  0  0  0  0  0
   -2.9133  -11.6279   18.7578 C   0  0  0  0  0  0  0  0  0  0  0  0
    4.5688  -10.1291   29.5758 C   0  0  0  0  0  0  0  0  0  0  0  0
    2.1008   -9.0410   29.1852 N   0  0  0  0  0  0  0  0  0  0  0  0
    3.4829  -10.5697   30.2091 N   0  0  0  0  0  0  0  0  0  0  0  0
   -0.3363   -6.1172   27.5628 C   0  0  0  0  0  0  0  0  0  0  0  0
    3.0331   -7.4400   27.6362 C   0  0  0  0  0  0  0  0  0  0  0  0
    5.4553   -8.5933   27.9644 C   0  0  0  0  0  0  0  0  0  0  0  0
   -2.3870  -12.8440   19.2512 C   0  0  0  0  0  0  0  0  0  0  0  0
    0.5331   -7.6964   16.2751 C   0  0  0  0  0  0  0  0  0  0  0  0
   -0.6740  -10.8737   18.0482 C   0  0  0  0  0  0  0  0  0  0  0  0
    5.6751  -10.5870   29.7637 O   0  0  0  0  0  0  0  0  0  0  0  0
    1.7612   -5.6483   26.7172 C   0  0  0  0  0  0  0  0  0  0  0  0
    0.2221   -9.8326   17.4055 C   0  0  0  0  0  0  0  0  0  0  0  0
    4.3850   -9.0730   28.6745 C   0  0  0  0  0  0  0  0  0  0  0  0
  1  7  4  0
  1 22  4  0
  2 17  4  0
  2 20  4  0
  2 28  4  0
  3  6  1  0
  3 19  1  0
  4 19  1  0
  4 26  1  0
  5 17  4  0
  5 18  4  0
  6 20  1  0
  6 26  1  0
  7 24  4  0
  8 15  4  0
  8 24  4  0
  9 14  4  0
  9 21  4  0
 10 12  4  0
 10 27  4  0
 11 12  4  0
 11 23  4  0
 13 23  4  0
 13 27  4  0
 14 20  4  0
 15 22  4  0
 16 18  4  0
 16 25  2  0
 16 28  4  0
 21 28  4  0
 24 27  1  0
M  END
$$$$

 Created by Python create_sdf_string function

 28 31  0  0  0  0  0  0  0  0999 V2000
   -1.0054  -13.0622   19.1198 C   0  0  0  0  0  0  0  0  0  0  0  0
    3.1478   -8.5360   28.5161 C   0  0  0  0  0  0  0  0  0  0  0  0
    0.5798   -7.1906   27.9330 C   0  0  0  0  0  0  0  0  0  0  0  0
    0.3978   -5.1561   26.6955 C   0  0  0  0  0  0  0  0  0  0  0  0
    2.3063  -10.0533   30.0125 C   0  0  0  0  0  0  0  0  0  0  0  0
    1.8591   -6.8254   27.4685 N   0  0  0  0  0  0  0  0  0  0  0  0
   -0.2167  -12.1055   18.5568 C   0  0  0  0  0  0  0  0  0  0  0  0
   -2.0661  -10.6994   18.1916 C   0  0  0  0  0  0  0  0  0  0  0  0
    5.2703   -7.5691   27.1123 C   0  0  0  0  0  0  0  0  0  0  0  0
    1.6204   -9.9887   17.2935 C   0  0  0  0  0  0  0  0  0  0  0  0
    1.8931   -7.9265   16.2047 C   0  0  0  0  0  0  0  0  0  0  0  0
    2.4396   -9.0801   16.7132 C   0  0  0  0  0  0  0  0  0  0  0  0
   -0.2575   -8.6234   16.8582 C   0  0  0  0  0  0  0  0  0  0  0  0
    4.0614   -7.0367   27.0106 N   0  0  0  0  0  0  0  0  0  0  0  0
   -2.9133  -11.6279   18.7578 C   0  0  0  0  0  0  0  0  0  0  0  0
    4.5688  -10.1291   29.5758 C   0  0  0  0  0  0  0  0  0  0  0  0
    2.1008   -9.0410   29.1852 N   0  0  0  0  0  0  0  0  0  0  0  0
    3.4829  -10.5697   30.2091 N   0  0  0  0  0  0  0  0  0  0  0  0
   -0.3363   -6.1172   27.5628 C   0  0  0  0  0  0  0  0  0  0  0  0
    3.0331   -7.4400   27.6362 C   0  0  0  0  0  0  0  0  0  0  0  0
    5.4553   -8.5933   27.9644 C   0  0  0  0  0  0  0  0  0  0  0  0
   -2.3870  -12.8440   19.2512 C   0  0  0  0  0  0  0  0  0  0  0  0
    0.5331   -7.6964   16.2751 C   0  0  0  0  0  0  0  0  0  0  0  0
   -0.6740  -10.8737   18.0482 C   0  0  0  0  0  0  0  0  0  0  0  0
    5.6751  -10.5870   29.7637 O   0  0  0  0  0  0  0  0  0  0  0  0
    1.7612   -5.6483   26.7172 C   0  0  0  0  0  0  0  0  0  0  0  0
    0.2221   -9.8326   17.4055 C   0  0  0  0  0  0  0  0  0  0  0  0
    4.3850   -9.0730   28.6745 C   0  0  0  0  0  0  0  0  0  0  0  0
  1  7  4  0
  1 22  4  0
  2 17  4  0
  2 20  4  0
  2 28  4  0
  3  6  1  0
  3 19  1  0
  4 19  1  0
  4 26  1  0
  5 17  4  0
  5 18  4  0
  6 20  1  0
  6 26  1  0
  7 24  4  0
  8 15  4  0
  8 24  4  0
  9 14  4  0
  9 21  4  0
 10 12  4  0
 10 27  4  0
 11 12  4  0
 11 23  4  0
 13 23  4  0
 13 27  4  0
 14 20  4  0
 15 22  4  0
 16 18  4  0
 16 25  2  0
 16 28  4  0
 21 28  4  0
 24 27  1  0
M  END
$$$$

 Created by Python create_sdf_string function

 28 31  0  0  0  0  0  0  0  0999 V2000
   -1.0054  -13.0622   19.1198 C   0  0  0  0  0  0  0  0  0  0  0  0
    3.1478   -8.5360   28.5161 C   0  0  0  0  0  0  0  0  0  0  0  0
    0.5798   -7.1906   27.9330 C   0  0  0  0  0  0  0  0  0  0  0  0
    0.3978   -5.1561   26.6955 C   0  0  0  0  0  0  0  0  0  0  0  0
    2.3063  -10.0533   30.0125 C   0  0  0  0  0  0  0  0  0  0  0  0
    1.8591   -6.8254   27.4685 N   0  0  0  0  0  0  0  0  0  0  0  0
   -0.2167  -12.1055   18.5568 C   0  0  0  0  0  0  0  0  0  0  0  0
   -2.0661  -10.6994   18.1916 C   0  0  0  0  0  0  0  0  0  0  0  0
    5.2703   -7.5691   27.1123 C   0  0  0  0  0  0  0  0  0  0  0  0
    1.6204   -9.9887   17.2935 C   0  0  0  0  0  0  0  0  0  0  0  0
    1.8931   -7.9265   16.2047 C   0  0  0  0  0  0  0  0  0  0  0  0
    2.4396   -9.0801   16.7132 C   0  0  0  0  0  0  0  0  0  0  0  0
   -0.2575   -8.6234   16.8582 C   0  0  0  0  0  0  0  0  0  0  0  0
    4.0614   -7.0367   27.0106 N   0  0  0  0  0  0  0  0  0  0  0  0
   -2.9133  -11.6279   18.7578 C   0  0  0  0  0  0  0  0  0  0  0  0
    4.5688  -10.1291   29.5758 C   0  0  0  0  0  0  0  0  0  0  0  0
    2.1008   -9.0410   29.1852 N   0  0  0  0  0  0  0  0  0  0  0  0
    3.4829  -10.5697   30.2091 N   0  0  0  0  0  0  0  0  0  0  0  0
   -0.3363   -6.1172   27.5628 C   0  0  0  0  0  0  0  0  0  0  0  0
    3.0331   -7.4400   27.6362 C   0  0  0  0  0  0  0  0  0  0  0  0
    5.4553   -8.5933   27.9644 C   0  0  0  0  0  0  0  0  0  0  0  0
   -2.3870  -12.8440   19.2512 C   0  0  0  0  0  0  0  0  0  0  0  0
    0.5331   -7.6964   16.2751 C   0  0  0  0  0  0  0  0  0  0  0  0
   -0.6740  -10.8737   18.0482 C   0  0  0  0  0  0  0  0  0  0  0  0
    5.6751  -10.5870   29.7637 O   0  0  0  0  0  0  0  0  0  0  0  0
    1.7612   -5.6483   26.7172 C   0  0  0  0  0  0  0  0  0  0  0  0
    0.2221   -9.8326   17.4055 C   0  0  0  0  0  0  0  0  0  0  0  0
    4.3850   -9.0730   28.6745 C   0  0  0  0  0  0  0  0  0  0  0  0
  1  7  4  0
  1 22  4  0
  2 17  4  0
  2 20  4  0
  2 28  4  0
  3  6  1  0
  3 19  1  0
  4 19  1  0
  4 26  1  0
  5 17  4  0
  5 18  4  0
  6 20  1  0
  6 26  1  0
  7 24  4  0
  8 15  4  0
  8 24  4  0
  9 14  4  0
  9 21  4  0
 10 12  4  0
 10 27  4  0
 11 12  4  0
 11 23  4  0
 13 23  4  0
 13 27  4  0
 14 20  4  0
 15 22  4  0
 16 18  4  0
 16 25  2  0
 16 28  4  0
 21 28  4  0
 24 27  1  0
M  END
$$$$

 Created by Python create_sdf_string function

 28 31  0  0  0  0  0  0  0  0999 V2000
   -1.0054  -13.0622   19.1198 C   0  0  0  0  0  0  0  0  0  0  0  0
    3.1478   -8.5360   28.5161 C   0  0  0  0  0  0  0  0  0  0  0  0
    0.5798   -7.1906   27.9330 C   0  0  0  0  0  0  0  0  0  0  0  0
    0.3978   -5.1561   26.6955 C   0  0  0  0  0  0  0  0  0  0  0  0
    2.3063  -10.0533   30.0125 C   0  0  0  0  0  0  0  0  0  0  0  0
    1.8591   -6.8254   27.4685 N   0  0  0  0  0  0  0  0  0  0  0  0
   -0.2167  -12.1055   18.5568 C   0  0  0  0  0  0  0  0  0  0  0  0
   -2.0661  -10.6994   18.1916 C   0  0  0  0  0  0  0  0  0  0  0  0
    5.2703   -7.5691   27.1123 C   0  0  0  0  0  0  0  0  0  0  0  0
    1.6204   -9.9887   17.2935 C   0  0  0  0  0  0  0  0  0  0  0  0
    1.8931   -7.9265   16.2047 C   0  0  0  0  0  0  0  0  0  0  0  0
    2.4396   -9.0801   16.7132 C   0  0  0  0  0  0  0  0  0  0  0  0
   -0.2575   -8.6234   16.8582 C   0  0  0  0  0  0  0  0  0  0  0  0
    4.0614   -7.0367   27.0106 N   0  0  0  0  0  0  0  0  0  0  0  0
   -2.9133  -11.6279   18.7578 C   0  0  0  0  0  0  0  0  0  0  0  0
    4.5688  -10.1291   29.5758 C   0  0  0  0  0  0  0  0  0  0  0  0
    2.1008   -9.0410   29.1852 N   0  0  0  0  0  0  0  0  0  0  0  0
    3.4829  -10.5697   30.2091 N   0  0  0  0  0  0  0  0  0  0  0  0
   -0.3363   -6.1172   27.5628 C   0  0  0  0  0  0  0  0  0  0  0  0
    3.0331   -7.4400   27.6362 C   0  0  0  0  0  0  0  0  0  0  0  0
    5.4553   -8.5933   27.9644 C   0  0  0  0  0  0  0  0  0  0  0  0
   -2.3870  -12.8440   19.2512 C   0  0  0  0  0  0  0  0  0  0  0  0
    0.5331   -7.6964   16.2751 C   0  0  0  0  0  0  0  0  0  0  0  0
   -0.6740  -10.8737   18.0482 C   0  0  0  0  0  0  0  0  0  0  0  0
    5.6751  -10.5870   29.7637 O   0  0  0  0  0  0  0  0  0  0  0  0
    1.7612   -5.6483   26.7172 C   0  0  0  0  0  0  0  0  0  0  0  0
    0.2221   -9.8326   17.4055 C   0  0  0  0  0  0  0  0  0  0  0  0
    4.3850   -9.0730   28.6745 C   0  0  0  0  0  0  0  0  0  0  0  0
  1  7  4  0
  1 22  4  0
  2 17  4  0
  2 20  4  0
  2 28  4  0
  3  6  1  0
  3 19  1  0
  4 19  1  0
  4 26  1  0
  5 17  4  0
  5 18  4  0
  6 20  1  0
  6 26  1  0
  7 24  4  0
  8 15  4  0
  8 24  4  0
  9 14  4  0
  9 21  4  0
 10 12  4  0
 10 27  4  0
 11 12  4  0
 11 23  4  0
 13 23  4  0
 13 27  4  0
 14 20  4  0
 15 22  4  0
 16 18  4  0
 16 25  2  0
 16 28  4  0
 21 28  4  0
 24 27  1  0
M  END
$$$$

 Created by Python create_sdf_string function

 28 31  0  0  0  0  0  0  0  0999 V2000
   -1.0054  -13.0622   19.1198 C   0  0  0  0  0  0  0  0  0  0  0  0
    3.1478   -8.5360   28.5161 C   0  0  0  0  0  0  0  0  0  0  0  0
    0.5798   -7.1906   27.9330 C   0  0  0  0  0  0  0  0  0  0  0  0
    0.3978   -5.1561   26.6955 C   0  0  0  0  0  0  0  0  0  0  0  0
    2.3063  -10.0533   30.0125 C   0  0  0  0  0  0  0  0  0  0  0  0
    1.8591   -6.8254   27.4685 N   0  0  0  0  0  0  0  0  0  0  0  0
   -0.2167  -12.1055   18.5568 C   0  0  0  0  0  0  0  0  0  0  0  0
   -2.0661  -10.6994   18.1916 C   0  0  0  0  0  0  0  0  0  0  0  0
    5.2703   -7.5691   27.1123 C   0  0  0  0  0  0  0  0  0  0  0  0
    1.6204   -9.9887   17.2935 C   0  0  0  0  0  0  0  0  0  0  0  0
    1.8931   -7.9265   16.2047 C   0  0  0  0  0  0  0  0  0  0  0  0
    2.4396   -9.0801   16.7132 C   0  0  0  0  0  0  0  0  0  0  0  0
   -0.2575   -8.6234   16.8582 C   0  0  0  0  0  0  0  0  0  0  0  0
    4.0614   -7.0367   27.0106 N   0  0  0  0  0  0  0  0  0  0  0  0
   -2.9133  -11.6279   18.7578 C   0  0  0  0  0  0  0  0  0  0  0  0
    4.5688  -10.1291   29.5758 C   0  0  0  0  0  0  0  0  0  0  0  0
    2.1008   -9.0410   29.1852 N   0  0  0  0  0  0  0  0  0  0  0  0
    3.4829  -10.5697   30.2091 N   0  0  0  0  0  0  0  0  0  0  0  0
   -0.3363   -6.1172   27.5628 C   0  0  0  0  0  0  0  0  0  0  0  0
    3.0331   -7.4400   27.6362 C   0  0  0  0  0  0  0  0  0  0  0  0
    5.4553   -8.5933   27.9644 C   0  0  0  0  0  0  0  0  0  0  0  0
   -2.3870  -12.8440   19.2512 C   0  0  0  0  0  0  0  0  0  0  0  0
    0.5331   -7.6964   16.2751 C   0  0  0  0  0  0  0  0  0  0  0  0
   -0.6740  -10.8737   18.0482 C   0  0  0  0  0  0  0  0  0  0  0  0
    5.6751  -10.5870   29.7637 O   0  0  0  0  0  0  0  0  0  0  0  0
    1.7612   -5.6483   26.7172 C   0  0  0  0  0  0  0  0  0  0  0  0
    0.2221   -9.8326   17.4055 C   0  0  0  0  0  0  0  0  0  0  0  0
    4.3850   -9.0730   28.6745 C   0  0  0  0  0  0  0  0  0  0  0  0
  1  7  4  0
  1 22  4  0
  2 17  4  0
  2 20  4  0
  2 28  4  0
  3  6  1  0
  3 19  1  0
  4 19  1  0
  4 26  1  0
  5 17  4  0
  5 18  4  0
  6 20  1  0
  6 26  1  0
  7 24  4  0
  8 15  4  0
  8 24  4  0
  9 14  4  0
  9 21  4  0
 10 12  4  0
 10 27  4  0
 11 12  4  0
 11 23  4  0
 13 23  4  0
 13 27  4  0
 14 20  4  0
 15 22  4  0
 16 18  4  0
 16 25  2  0
 16 28  4  0
 21 28  4  0
 24 27  1  0
M  END
$$$$

 Created by Python create_sdf_string function

 28 31  0  0  0  0  0  0  0  0999 V2000
   -1.0054  -13.0622   19.1198 C   0  0  0  0  0  0  0  0  0  0  0  0
    3.1478   -8.5360   28.5161 C   0  0  0  0  0  0  0  0  0  0  0  0
    0.5798   -7.1906   27.9330 C   0  0  0  0  0  0  0  0  0  0  0  0
    0.3978   -5.1561   26.6955 C   0  0  0  0  0  0  0  0  0  0  0  0
    2.3063  -10.0533   30.0125 C   0  0  0  0  0  0  0  0  0  0  0  0
    1.8591   -6.8254   27.4685 N   0  0  0  0  0  0  0  0  0  0  0  0
   -0.2167  -12.1055   18.5568 C   0  0  0  0  0  0  0  0  0  0  0  0
   -2.0661  -10.6994   18.1916 C   0  0  0  0  0  0  0  0  0  0  0  0
    5.2703   -7.5691   27.1123 C   0  0  0  0  0  0  0  0  0  0  0  0
    1.6204   -9.9887   17.2935 C   0  0  0  0  0  0  0  0  0  0  0  0
    1.8931   -7.9265   16.2047 C   0  0  0  0  0  0  0  0  0  0  0  0
    2.4396   -9.0801   16.7132 C   0  0  0  0  0  0  0  0  0  0  0  0
   -0.2575   -8.6234   16.8582 C   0  0  0  0  0  0  0  0  0  0  0  0
    4.0614   -7.0367   27.0106 N   0  0  0  0  0  0  0  0  0  0  0  0
   -2.9133  -11.6279   18.7578 C   0  0  0  0  0  0  0  0  0  0  0  0
    4.5688  -10.1291   29.5758 C   0  0  0  0  0  0  0  0  0  0  0  0
    2.1008   -9.0410   29.1852 N   0  0  0  0  0  0  0  0  0  0  0  0
    3.4829  -10.5697   30.2091 N   0  0  0  0  0  0  0  0  0  0  0  0
   -0.3363   -6.1172   27.5628 C   0  0  0  0  0  0  0  0  0  0  0  0
    3.0331   -7.4400   27.6362 C   0  0  0  0  0  0  0  0  0  0  0  0
    5.4553   -8.5933   27.9644 C   0  0  0  0  0  0  0  0  0  0  0  0
   -2.3870  -12.8440   19.2512 C   0  0  0  0  0  0  0  0  0  0  0  0
    0.5331   -7.6964   16.2751 C   0  0  0  0  0  0  0  0  0  0  0  0
   -0.6740  -10.8737   18.0482 C   0  0  0  0  0  0  0  0  0  0  0  0
    5.6751  -10.5870   29.7637 O   0  0  0  0  0  0  0  0  0  0  0  0
    1.7612   -5.6483   26.7172 C   0  0  0  0  0  0  0  0  0  0  0  0
    0.2221   -9.8326   17.4055 C   0  0  0  0  0  0  0  0  0  0  0  0
    4.3850   -9.0730   28.6745 C   0  0  0  0  0  0  0  0  0  0  0  0
  1  7  4  0
  1 22  4  0
  2 17  4  0
  2 20  4  0
  2 28  4  0
  3  6  1  0
  3 19  1  0
  4 19  1  0
  4 26  1  0
  5 17  4  0
  5 18  4  0
  6 20  1  0
  6 26  1  0
  7 24  4  0
  8 15  4  0
  8 24  4  0
  9 14  4  0
  9 21  4  0
 10 12  4  0
 10 27  4  0
 11 12  4  0
 11 23  4  0
 13 23  4  0
 13 27  4  0
 14 20  4  0
 15 22  4  0
 16 18  4  0
 16 25  2  0
 16 28  4  0
 21 28  4  0
 24 27  1  0
M  END
$$$$

 Created by Python create_sdf_string function

 28 31  0  0  0  0  0  0  0  0999 V2000
   -1.0054  -13.0622   19.1198 C   0  0  0  0  0  0  0  0  0  0  0  0
    3.1478   -8.5360   28.5161 C   0  0  0  0  0  0  0  0  0  0  0  0
    0.5798   -7.1906   27.9330 C   0  0  0  0  0  0  0  0  0  0  0  0
    0.3978   -5.1561   26.6955 C   0  0  0  0  0  0  0  0  0  0  0  0
    2.3063  -10.0533   30.0125 C   0  0  0  0  0  0  0  0  0  0  0  0
    1.8591   -6.8254   27.4685 N   0  0  0  0  0  0  0  0  0  0  0  0
   -0.2167  -12.1055   18.5568 C   0  0  0  0  0  0  0  0  0  0  0  0
   -2.0661  -10.6994   18.1916 C   0  0  0  0  0  0  0  0  0  0  0  0
    5.2703   -7.5691   27.1123 C   0  0  0  0  0  0  0  0  0  0  0  0
    1.6204   -9.9887   17.2935 C   0  0  0  0  0  0  0  0  0  0  0  0
    1.8931   -7.9265   16.2047 C   0  0  0  0  0  0  0  0  0  0  0  0
    2.4396   -9.0801   16.7132 C   0  0  0  0  0  0  0  0  0  0  0  0
   -0.2575   -8.6234   16.8582 C   0  0  0  0  0  0  0  0  0  0  0  0
    4.0614   -7.0367   27.0106 N   0  0  0  0  0  0  0  0  0  0  0  0
   -2.9133  -11.6279   18.7578 C   0  0  0  0  0  0  0  0  0  0  0  0
    4.5688  -10.1291   29.5758 C   0  0  0  0  0  0  0  0  0  0  0  0
    2.1008   -9.0410   29.1852 N   0  0  0  0  0  0  0  0  0  0  0  0
    3.4829  -10.5697   30.2091 N   0  0  0  0  0  0  0  0  0  0  0  0
   -0.3363   -6.1172   27.5628 C   0  0  0  0  0  0  0  0  0  0  0  0
    3.0331   -7.4400   27.6362 C   0  0  0  0  0  0  0  0  0  0  0  0
    5.4553   -8.5933   27.9644 C   0  0  0  0  0  0  0  0  0  0  0  0
   -2.3870  -12.8440   19.2512 C   0  0  0  0  0  0  0  0  0  0  0  0
    0.5331   -7.6964   16.2751 C   0  0  0  0  0  0  0  0  0  0  0  0
   -0.6740  -10.8737   18.0482 C   0  0  0  0  0  0  0  0  0  0  0  0
    5.6751  -10.5870   29.7637 O   0  0  0  0  0  0  0  0  0  0  0  0
    1.7612   -5.6483   26.7172 C   0  0  0  0  0  0  0  0  0  0  0  0
    0.2221   -9.8326   17.4055 C   0  0  0  0  0  0  0  0  0  0  0  0
    4.3850   -9.0730   28.6745 C   0  0  0  0  0  0  0  0  0  0  0  0
  1  7  4  0
  1 22  4  0
  2 17  4  0
  2 20  4  0
  2 28  4  0
  3  6  1  0
  3 19  1  0
  4 19  1  0
  4 26  1  0
  5 17  4  0
  5 18  4  0
  6 20  1  0
  6 26  1  0
  7 24  4  0
  8 15  4  0
  8 24  4  0
  9 14  4  0
  9 21  4  0
 10 12  4  0
 10 27  4  0
 11 12  4  0
 11 23  4  0
 13 23  4  0
 13 27  4  0
 14 20  4  0
 15 22  4  0
 16 18  4  0
 16 25  2  0
 16 28  4  0
 21 28  4  0
 24 27  1  0
M  END
$$$$

 Created by Python create_sdf_string function

 28 31  0  0  0  0  0  0  0  0999 V2000
   -1.0054  -13.0622   19.1198 C   0  0  0  0  0  0  0  0  0  0  0  0
    3.1478   -8.5360   28.5161 C   0  0  0  0  0  0  0  0  0  0  0  0
    0.5798   -7.1906   27.9330 C   0  0  0  0  0  0  0  0  0  0  0  0
    0.3978   -5.1561   26.6955 C   0  0  0  0  0  0  0  0  0  0  0  0
    2.3063  -10.0533   30.0125 C   0  0  0  0  0  0  0  0  0  0  0  0
    1.8591   -6.8254   27.4685 N   0  0  0  0  0  0  0  0  0  0  0  0
   -0.2167  -12.1055   18.5568 C   0  0  0  0  0  0  0  0  0  0  0  0
   -2.0661  -10.6994   18.1916 C   0  0  0  0  0  0  0  0  0  0  0  0
    5.2703   -7.5691   27.1123 C   0  0  0  0  0  0  0  0  0  0  0  0
    1.6204   -9.9887   17.2935 C   0  0  0  0  0  0  0  0  0  0  0  0
    1.8931   -7.9265   16.2047 C   0  0  0  0  0  0  0  0  0  0  0  0
    2.4396   -9.0801   16.7132 C   0  0  0  0  0  0  0  0  0  0  0  0
   -0.2575   -8.6234   16.8582 C   0  0  0  0  0  0  0  0  0  0  0  0
    4.0614   -7.0367   27.0106 N   0  0  0  0  0  0  0  0  0  0  0  0
   -2.9133  -11.6279   18.7578 C   0  0  0  0  0  0  0  0  0  0  0  0
    4.5688  -10.1291   29.5758 C   0  0  0  0  0  0  0  0  0  0  0  0
    2.1008   -9.0410   29.1852 N   0  0  0  0  0  0  0  0  0  0  0  0
    3.4829  -10.5697   30.2091 N   0  0  0  0  0  0  0  0  0  0  0  0
   -0.3363   -6.1172   27.5628 C   0  0  0  0  0  0  0  0  0  0  0  0
    3.0331   -7.4400   27.6362 C   0  0  0  0  0  0  0  0  0  0  0  0
    5.4553   -8.5933   27.9644 C   0  0  0  0  0  0  0  0  0  0  0  0
   -2.3870  -12.8440   19.2512 C   0  0  0  0  0  0  0  0  0  0  0  0
    0.5331   -7.6964   16.2751 C   0  0  0  0  0  0  0  0  0  0  0  0
   -0.6740  -10.8737   18.0482 C   0  0  0  0  0  0  0  0  0  0  0  0
    5.6751  -10.5870   29.7637 O   0  0  0  0  0  0  0  0  0  0  0  0
    1.7612   -5.6483   26.7172 C   0  0  0  0  0  0  0  0  0  0  0  0
    0.2221   -9.8326   17.4055 C   0  0  0  0  0  0  0  0  0  0  0  0
    4.3850   -9.0730   28.6745 C   0  0  0  0  0  0  0  0  0  0  0  0
  1  7  4  0
  1 22  4  0
  2 17  4  0
  2 20  4  0
  2 28  4  0
  3  6  1  0
  3 19  1  0
  4 19  1  0
  4 26  1  0
  5 17  4  0
  5 18  4  0
  6 20  1  0
  6 26  1  0
  7 24  4  0
  8 15  4  0
  8 24  4  0
  9 14  4  0
  9 21  4  0
 10 12  4  0
 10 27  4  0
 11 12  4  0
 11 23  4  0
 13 23  4  0
 13 27  4  0
 14 20  4  0
 15 22  4  0
 16 18  4  0
 16 25  2  0
 16 28  4  0
 21 28  4  0
 24 27  1  0
M  END
$$$$

 Created by Python create_sdf_string function

 28 31  0  0  0  0  0  0  0  0999 V2000
   -1.0054  -13.0622   19.1198 C   0  0  0  0  0  0  0  0  0  0  0  0
    3.1478   -8.5360   28.5161 C   0  0  0  0  0  0  0  0  0  0  0  0
    0.5798   -7.1906   27.9330 C   0  0  0  0  0  0  0  0  0  0  0  0
    0.3978   -5.1561   26.6955 C   0  0  0  0  0  0  0  0  0  0  0  0
    2.3063  -10.0533   30.0125 C   0  0  0  0  0  0  0  0  0  0  0  0
    1.8591   -6.8254   27.4685 N   0  0  0  0  0  0  0  0  0  0  0  0
   -0.2167  -12.1055   18.5568 C   0  0  0  0  0  0  0  0  0  0  0  0
   -2.0661  -10.6994   18.1916 C   0  0  0  0  0  0  0  0  0  0  0  0
    5.2703   -7.5691   27.1123 C   0  0  0  0  0  0  0  0  0  0  0  0
    1.6204   -9.9887   17.2935 C   0  0  0  0  0  0  0  0  0  0  0  0
    1.8931   -7.9265   16.2047 C   0  0  0  0  0  0  0  0  0  0  0  0
    2.4396   -9.0801   16.7132 C   0  0  0  0  0  0  0  0  0  0  0  0
   -0.2575   -8.6234   16.8582 C   0  0  0  0  0  0  0  0  0  0  0  0
    4.0614   -7.0367   27.0106 N   0  0  0  0  0  0  0  0  0  0  0  0
   -2.9133  -11.6279   18.7578 C   0  0  0  0  0  0  0  0  0  0  0  0
    4.5688  -10.1291   29.5758 C   0  0  0  0  0  0  0  0  0  0  0  0
    2.1008   -9.0410   29.1852 N   0  0  0  0  0  0  0  0  0  0  0  0
    3.4829  -10.5697   30.2091 N   0  0  0  0  0  0  0  0  0  0  0  0
   -0.3363   -6.1172   27.5628 C   0  0  0  0  0  0  0  0  0  0  0  0
    3.0331   -7.4400   27.6362 C   0  0  0  0  0  0  0  0  0  0  0  0
    5.4553   -8.5933   27.9644 C   0  0  0  0  0  0  0  0  0  0  0  0
   -2.3870  -12.8440   19.2512 C   0  0  0  0  0  0  0  0  0  0  0  0
    0.5331   -7.6964   16.2751 C   0  0  0  0  0  0  0  0  0  0  0  0
   -0.6740  -10.8737   18.0482 C   0  0  0  0  0  0  0  0  0  0  0  0
    5.6751  -10.5870   29.7637 O   0  0  0  0  0  0  0  0  0  0  0  0
    1.7612   -5.6483   26.7172 C   0  0  0  0  0  0  0  0  0  0  0  0
    0.2221   -9.8326   17.4055 C   0  0  0  0  0  0  0  0  0  0  0  0
    4.3850   -9.0730   28.6745 C   0  0  0  0  0  0  0  0  0  0  0  0
  1  7  4  0
  1 22  4  0
  2 17  4  0
  2 20  4  0
  2 28  4  0
  3  6  1  0
  3 19  1  0
  4 19  1  0
  4 26  1  0
  5 17  4  0
  5 18  4  0
  6 20  1  0
  6 26  1  0
  7 24  4  0
  8 15  4  0
  8 24  4  0
  9 14  4  0
  9 21  4  0
 10 12  4  0
 10 27  4  0
 11 12  4  0
 11 23  4  0
 13 23  4  0
 13 27  4  0
 14 20  4  0
 15 22  4  0
 16 18  4  0
 16 25  2  0
 16 28  4  0
 21 28  4  0
 24 27  1  0
M  END
$$$$

 Created by Python create_sdf_string function

 28 31  0  0  0  0  0  0  0  0999 V2000
   -1.0054  -13.0622   19.1198 C   0  0  0  0  0  0  0  0  0  0  0  0
    3.1478   -8.5360   28.5161 C   0  0  0  0  0  0  0  0  0  0  0  0
    0.5798   -7.1906   27.9330 C   0  0  0  0  0  0  0  0  0  0  0  0
    0.3978   -5.1561   26.6955 C   0  0  0  0  0  0  0  0  0  0  0  0
    2.3063  -10.0533   30.0125 C   0  0  0  0  0  0  0  0  0  0  0  0
    1.8591   -6.8254   27.4685 N   0  0  0  0  0  0  0  0  0  0  0  0
   -0.2167  -12.1055   18.5568 C   0  0  0  0  0  0  0  0  0  0  0  0
   -2.0661  -10.6994   18.1916 C   0  0  0  0  0  0  0  0  0  0  0  0
    5.2703   -7.5691   27.1123 C   0  0  0  0  0  0  0  0  0  0  0  0
    1.6204   -9.9887   17.2935 C   0  0  0  0  0  0  0  0  0  0  0  0
    1.8931   -7.9265   16.2047 C   0  0  0  0  0  0  0  0  0  0  0  0
    2.4396   -9.0801   16.7132 C   0  0  0  0  0  0  0  0  0  0  0  0
   -0.2575   -8.6234   16.8582 C   0  0  0  0  0  0  0  0  0  0  0  0
    4.0614   -7.0367   27.0106 N   0  0  0  0  0  0  0  0  0  0  0  0
   -2.9133  -11.6279   18.7578 C   0  0  0  0  0  0  0  0  0  0  0  0
    4.5688  -10.1291   29.5758 C   0  0  0  0  0  0  0  0  0  0  0  0
    2.1008   -9.0410   29.1852 N   0  0  0  0  0  0  0  0  0  0  0  0
    3.4829  -10.5697   30.2091 N   0  0  0  0  0  0  0  0  0  0  0  0
   -0.3363   -6.1172   27.5628 C   0  0  0  0  0  0  0  0  0  0  0  0
    3.0331   -7.4400   27.6362 C   0  0  0  0  0  0  0  0  0  0  0  0
    5.4553   -8.5933   27.9644 C   0  0  0  0  0  0  0  0  0  0  0  0
   -2.3870  -12.8440   19.2512 C   0  0  0  0  0  0  0  0  0  0  0  0
    0.5331   -7.6964   16.2751 C   0  0  0  0  0  0  0  0  0  0  0  0
   -0.6740  -10.8737   18.0482 C   0  0  0  0  0  0  0  0  0  0  0  0
    5.6751  -10.5870   29.7637 O   0  0  0  0  0  0  0  0  0  0  0  0
    1.7612   -5.6483   26.7172 C   0  0  0  0  0  0  0  0  0  0  0  0
    0.2221   -9.8326   17.4055 C   0  0  0  0  0  0  0  0  0  0  0  0
    4.3850   -9.0730   28.6745 C   0  0  0  0  0  0  0  0  0  0  0  0
  1  7  4  0
  1 22  4  0
  2 17  4  0
  2 20  4  0
  2 28  4  0
  3  6  1  0
  3 19  1  0
  4 19  1  0
  4 26  1  0
  5 17  4  0
  5 18  4  0
  6 20  1  0
  6 26  1  0
  7 24  4  0
  8 15  4  0
  8 24  4  0
  9 14  4  0
  9 21  4  0
 10 12  4  0
 10 27  4  0
 11 12  4  0
 11 23  4  0
 13 23  4  0
 13 27  4  0
 14 20  4  0
 15 22  4  0
 16 18  4  0
 16 25  2  0
 16 28  4  0
 21 28  4  0
 24 27  1  0
M  END
$$$$

 Created by Python create_sdf_string function

 28 31  0  0  0  0  0  0  0  0999 V2000
   -1.0054  -13.0622   19.1198 C   0  0  0  0  0  0  0  0  0  0  0  0
    3.1478   -8.5360   28.5161 C   0  0  0  0  0  0  0  0  0  0  0  0
    0.5798   -7.1906   27.9330 C   0  0  0  0  0  0  0  0  0  0  0  0
    0.3978   -5.1561   26.6955 C   0  0  0  0  0  0  0  0  0  0  0  0
    2.3063  -10.0533   30.0125 C   0  0  0  0  0  0  0  0  0  0  0  0
    1.8591   -6.8254   27.4685 N   0  0  0  0  0  0  0  0  0  0  0  0
   -0.2167  -12.1055   18.5568 C   0  0  0  0  0  0  0  0  0  0  0  0
   -2.0661  -10.6994   18.1916 C   0  0  0  0  0  0  0  0  0  0  0  0
    5.2703   -7.5691   27.1123 C   0  0  0  0  0  0  0  0  0  0  0  0
    1.6204   -9.9887   17.2935 C   0  0  0  0  0  0  0  0  0  0  0  0
    1.8931   -7.9265   16.2047 C   0  0  0  0  0  0  0  0  0  0  0  0
    2.4396   -9.0801   16.7132 C   0  0  0  0  0  0  0  0  0  0  0  0
   -0.2575   -8.6234   16.8582 C   0  0  0  0  0  0  0  0  0  0  0  0
    4.0614   -7.0367   27.0106 N   0  0  0  0  0  0  0  0  0  0  0  0
   -2.9133  -11.6279   18.7578 C   0  0  0  0  0  0  0  0  0  0  0  0
    4.5688  -10.1291   29.5758 C   0  0  0  0  0  0  0  0  0  0  0  0
    2.1008   -9.0410   29.1852 N   0  0  0  0  0  0  0  0  0  0  0  0
    3.4829  -10.5697   30.2091 N   0  0  0  0  0  0  0  0  0  0  0  0
   -0.3363   -6.1172   27.5628 C   0  0  0  0  0  0  0  0  0  0  0  0
    3.0331   -7.4400   27.6362 C   0  0  0  0  0  0  0  0  0  0  0  0
    5.4553   -8.5933   27.9644 C   0  0  0  0  0  0  0  0  0  0  0  0
   -2.3870  -12.8440   19.2512 C   0  0  0  0  0  0  0  0  0  0  0  0
    0.5331   -7.6964   16.2751 C   0  0  0  0  0  0  0  0  0  0  0  0
   -0.6740  -10.8737   18.0482 C   0  0  0  0  0  0  0  0  0  0  0  0
    5.6751  -10.5870   29.7637 O   0  0  0  0  0  0  0  0  0  0  0  0
    1.7612   -5.6483   26.7172 C   0  0  0  0  0  0  0  0  0  0  0  0
    0.2221   -9.8326   17.4055 C   0  0  0  0  0  0  0  0  0  0  0  0
    4.3850   -9.0730   28.6745 C   0  0  0  0  0  0  0  0  0  0  0  0
  1  7  4  0
  1 22  4  0
  2 17  4  0
  2 20  4  0
  2 28  4  0
  3  6  1  0
  3 19  1  0
  4 19  1  0
  4 26  1  0
  5 17  4  0
  5 18  4  0
  6 20  1  0
  6 26  1  0
  7 24  4  0
  8 15  4  0
  8 24  4  0
  9 14  4  0
  9 21  4  0
 10 12  4  0
 10 27  4  0
 11 12  4  0
 11 23  4  0
 13 23  4  0
 13 27  4  0
 14 20  4  0
 15 22  4  0
 16 18  4  0
 16 25  2  0
 16 28  4  0
 21 28  4  0
 24 27  1  0
M  END
$$$$

 Created by Python create_sdf_string function

 28 31  0  0  0  0  0  0  0  0999 V2000
   -1.0054  -13.0622   19.1198 C   0  0  0  0  0  0  0  0  0  0  0  0
    3.1478   -8.5360   28.5161 C   0  0  0  0  0  0  0  0  0  0  0  0
    0.5798   -7.1906   27.9330 C   0  0  0  0  0  0  0  0  0  0  0  0
    0.3978   -5.1561   26.6955 C   0  0  0  0  0  0  0  0  0  0  0  0
    2.3063  -10.0533   30.0125 C   0  0  0  0  0  0  0  0  0  0  0  0
    1.8591   -6.8254   27.4685 N   0  0  0  0  0  0  0  0  0  0  0  0
   -0.2167  -12.1055   18.5568 C   0  0  0  0  0  0  0  0  0  0  0  0
   -2.0661  -10.6994   18.1916 C   0  0  0  0  0  0  0  0  0  0  0  0
    5.2703   -7.5691   27.1123 C   0  0  0  0  0  0  0  0  0  0  0  0
    1.6204   -9.9887   17.2935 C   0  0  0  0  0  0  0  0  0  0  0  0
    1.8931   -7.9265   16.2047 C   0  0  0  0  0  0  0  0  0  0  0  0
    2.4396   -9.0801   16.7132 C   0  0  0  0  0  0  0  0  0  0  0  0
   -0.2575   -8.6234   16.8582 C   0  0  0  0  0  0  0  0  0  0  0  0
    4.0614   -7.0367   27.0106 N   0  0  0  0  0  0  0  0  0  0  0  0
   -2.9133  -11.6279   18.7578 C   0  0  0  0  0  0  0  0  0  0  0  0
    4.5688  -10.1291   29.5758 C   0  0  0  0  0  0  0  0  0  0  0  0
    2.1008   -9.0410   29.1852 N   0  0  0  0  0  0  0  0  0  0  0  0
    3.4829  -10.5697   30.2091 N   0  0  0  0  0  0  0  0  0  0  0  0
   -0.3363   -6.1172   27.5628 C   0  0  0  0  0  0  0  0  0  0  0  0
    3.0331   -7.4400   27.6362 C   0  0  0  0  0  0  0  0  0  0  0  0
    5.4553   -8.5933   27.9644 C   0  0  0  0  0  0  0  0  0  0  0  0
   -2.3870  -12.8440   19.2512 C   0  0  0  0  0  0  0  0  0  0  0  0
    0.5331   -7.6964   16.2751 C   0  0  0  0  0  0  0  0  0  0  0  0
   -0.6740  -10.8737   18.0482 C   0  0  0  0  0  0  0  0  0  0  0  0
    5.6751  -10.5870   29.7637 O   0  0  0  0  0  0  0  0  0  0  0  0
    1.7612   -5.6483   26.7172 C   0  0  0  0  0  0  0  0  0  0  0  0
    0.2221   -9.8326   17.4055 C   0  0  0  0  0  0  0  0  0  0  0  0
    4.3850   -9.0730   28.6745 C   0  0  0  0  0  0  0  0  0  0  0  0
  1  7  4  0
  1 22  4  0
  2 17  4  0
  2 20  4  0
  2 28  4  0
  3  6  1  0
  3 19  1  0
  4 19  1  0
  4 26  1  0
  5 17  4  0
  5 18  4  0
  6 20  1  0
  6 26  1  0
  7 24  4  0
  8 15  4  0
  8 24  4  0
  9 14  4  0
  9 21  4  0
 10 12  4  0
 10 27  4  0
 11 12  4  0
 11 23  4  0
 13 23  4  0
 13 27  4  0
 14 20  4  0
 15 22  4  0
 16 18  4  0
 16 25  2  0
 16 28  4  0
 21 28  4  0
 24 27  1  0
M  END
$$$$

 Created by Python create_sdf_string function

 28 31  0  0  0  0  0  0  0  0999 V2000
   -1.0054  -13.0622   19.1198 C   0  0  0  0  0  0  0  0  0  0  0  0
    3.1478   -8.5360   28.5161 C   0  0  0  0  0  0  0  0  0  0  0  0
    0.5798   -7.1906   27.9330 C   0  0  0  0  0  0  0  0  0  0  0  0
    0.3978   -5.1561   26.6955 C   0  0  0  0  0  0  0  0  0  0  0  0
    2.3063  -10.0533   30.0125 C   0  0  0  0  0  0  0  0  0  0  0  0
    1.8591   -6.8254   27.4685 N   0  0  0  0  0  0  0  0  0  0  0  0
   -0.2167  -12.1055   18.5568 C   0  0  0  0  0  0  0  0  0  0  0  0
   -2.0661  -10.6994   18.1916 C   0  0  0  0  0  0  0  0  0  0  0  0
    5.2703   -7.5691   27.1123 C   0  0  0  0  0  0  0  0  0  0  0  0
    1.6204   -9.9887   17.2935 C   0  0  0  0  0  0  0  0  0  0  0  0
    1.8931   -7.9265   16.2047 C   0  0  0  0  0  0  0  0  0  0  0  0
    2.4396   -9.0801   16.7132 C   0  0  0  0  0  0  0  0  0  0  0  0
   -0.2575   -8.6234   16.8582 C   0  0  0  0  0  0  0  0  0  0  0  0
    4.0614   -7.0367   27.0106 N   0  0  0  0  0  0  0  0  0  0  0  0
   -2.9133  -11.6279   18.7578 C   0  0  0  0  0  0  0  0  0  0  0  0
    4.5688  -10.1291   29.5758 C   0  0  0  0  0  0  0  0  0  0  0  0
    2.1008   -9.0410   29.1852 N   0  0  0  0  0  0  0  0  0  0  0  0
    3.4829  -10.5697   30.2091 N   0  0  0  0  0  0  0  0  0  0  0  0
   -0.3363   -6.1172   27.5628 C   0  0  0  0  0  0  0  0  0  0  0  0
    3.0331   -7.4400   27.6362 C   0  0  0  0  0  0  0  0  0  0  0  0
    5.4553   -8.5933   27.9644 C   0  0  0  0  0  0  0  0  0  0  0  0
   -2.3870  -12.8440   19.2512 C   0  0  0  0  0  0  0  0  0  0  0  0
    0.5331   -7.6964   16.2751 C   0  0  0  0  0  0  0  0  0  0  0  0
   -0.6740  -10.8737   18.0482 C   0  0  0  0  0  0  0  0  0  0  0  0
    5.6751  -10.5870   29.7637 O   0  0  0  0  0  0  0  0  0  0  0  0
    1.7612   -5.6483   26.7172 C   0  0  0  0  0  0  0  0  0  0  0  0
    0.2221   -9.8326   17.4055 C   0  0  0  0  0  0  0  0  0  0  0  0
    4.3850   -9.0730   28.6745 C   0  0  0  0  0  0  0  0  0  0  0  0
  1  7  4  0
  1 22  4  0
  2 17  4  0
  2 20  4  0
  2 28  4  0
  3  6  1  0
  3 19  1  0
  4 19  1  0
  4 26  1  0
  5 17  4  0
  5 18  4  0
  6 20  1  0
  6 26  1  0
  7 24  4  0
  8 15  4  0
  8 24  4  0
  9 14  4  0
  9 21  4  0
 10 12  4  0
 10 27  4  0
 11 12  4  0
 11 23  4  0
 13 23  4  0
 13 27  4  0
 14 20  4  0
 15 22  4  0
 16 18  4  0
 16 25  2  0
 16 28  4  0
 21 28  4  0
 24 27  1  0
M  END
$$$$

 Created by Python create_sdf_string function

 28 31  0  0  0  0  0  0  0  0999 V2000
   -1.0054  -13.0622   19.1198 C   0  0  0  0  0  0  0  0  0  0  0  0
    3.1478   -8.5360   28.5161 C   0  0  0  0  0  0  0  0  0  0  0  0
    0.5798   -7.1906   27.9330 C   0  0  0  0  0  0  0  0  0  0  0  0
    0.3978   -5.1561   26.6955 C   0  0  0  0  0  0  0  0  0  0  0  0
    2.3063  -10.0533   30.0125 C   0  0  0  0  0  0  0  0  0  0  0  0
    1.8591   -6.8254   27.4685 N   0  0  0  0  0  0  0  0  0  0  0  0
   -0.2167  -12.1055   18.5568 C   0  0  0  0  0  0  0  0  0  0  0  0
   -2.0661  -10.6994   18.1916 C   0  0  0  0  0  0  0  0  0  0  0  0
    5.2703   -7.5691   27.1123 C   0  0  0  0  0  0  0  0  0  0  0  0
    1.6204   -9.9887   17.2935 C   0  0  0  0  0  0  0  0  0  0  0  0
    1.8931   -7.9265   16.2047 C   0  0  0  0  0  0  0  0  0  0  0  0
    2.4396   -9.0801   16.7132 C   0  0  0  0  0  0  0  0  0  0  0  0
   -0.2575   -8.6234   16.8582 C   0  0  0  0  0  0  0  0  0  0  0  0
    4.0614   -7.0367   27.0106 N   0  0  0  0  0  0  0  0  0  0  0  0
   -2.9133  -11.6279   18.7578 C   0  0  0  0  0  0  0  0  0  0  0  0
    4.5688  -10.1291   29.5758 C   0  0  0  0  0  0  0  0  0  0  0  0
    2.1008   -9.0410   29.1852 N   0  0  0  0  0  0  0  0  0  0  0  0
    3.4829  -10.5697   30.2091 N   0  0  0  0  0  0  0  0  0  0  0  0
   -0.3363   -6.1172   27.5628 C   0  0  0  0  0  0  0  0  0  0  0  0
    3.0331   -7.4400   27.6362 C   0  0  0  0  0  0  0  0  0  0  0  0
    5.4553   -8.5933   27.9644 C   0  0  0  0  0  0  0  0  0  0  0  0
   -2.3870  -12.8440   19.2512 C   0  0  0  0  0  0  0  0  0  0  0  0
    0.5331   -7.6964   16.2751 C   0  0  0  0  0  0  0  0  0  0  0  0
   -0.6740  -10.8737   18.0482 C   0  0  0  0  0  0  0  0  0  0  0  0
    5.6751  -10.5870   29.7637 O   0  0  0  0  0  0  0  0  0  0  0  0
    1.7612   -5.6483   26.7172 C   0  0  0  0  0  0  0  0  0  0  0  0
    0.2221   -9.8326   17.4055 C   0  0  0  0  0  0  0  0  0  0  0  0
    4.3850   -9.0730   28.6745 C   0  0  0  0  0  0  0  0  0  0  0  0
  1  7  4  0
  1 22  4  0
  2 17  4  0
  2 20  4  0
  2 28  4  0
  3  6  1  0
  3 19  1  0
  4 19  1  0
  4 26  1  0
  5 17  4  0
  5 18  4  0
  6 20  1  0
  6 26  1  0
  7 24  4  0
  8 15  4  0
  8 24  4  0
  9 14  4  0
  9 21  4  0
 10 12  4  0
 10 27  4  0
 11 12  4  0
 11 23  4  0
 13 23  4  0
 13 27  4  0
 14 20  4  0
 15 22  4  0
 16 18  4  0
 16 25  2  0
 16 28  4  0
 21 28  4  0
 24 27  1  0
M  END
$$$$

 Created by Python create_sdf_string function

 28 31  0  0  0  0  0  0  0  0999 V2000
   -1.0054  -13.0622   19.1198 C   0  0  0  0  0  0  0  0  0  0  0  0
    3.1478   -8.5360   28.5161 C   0  0  0  0  0  0  0  0  0  0  0  0
    0.5798   -7.1906   27.9330 C   0  0  0  0  0  0  0  0  0  0  0  0
    0.3978   -5.1561   26.6955 C   0  0  0  0  0  0  0  0  0  0  0  0
    2.3063  -10.0533   30.0125 C   0  0  0  0  0  0  0  0  0  0  0  0
    1.8591   -6.8254   27.4685 N   0  0  0  0  0  0  0  0  0  0  0  0
   -0.2167  -12.1055   18.5568 C   0  0  0  0  0  0  0  0  0  0  0  0
   -2.0661  -10.6994   18.1916 C   0  0  0  0  0  0  0  0  0  0  0  0
    5.2703   -7.5691   27.1123 C   0  0  0  0  0  0  0  0  0  0  0  0
    1.6204   -9.9887   17.2935 C   0  0  0  0  0  0  0  0  0  0  0  0
    1.8931   -7.9265   16.2047 C   0  0  0  0  0  0  0  0  0  0  0  0
    2.4396   -9.0801   16.7132 C   0  0  0  0  0  0  0  0  0  0  0  0
   -0.2575   -8.6234   16.8582 C   0  0  0  0  0  0  0  0  0  0  0  0
    4.0614   -7.0367   27.0106 N   0  0  0  0  0  0  0  0  0  0  0  0
   -2.9133  -11.6279   18.7578 C   0  0  0  0  0  0  0  0  0  0  0  0
    4.5688  -10.1291   29.5758 C   0  0  0  0  0  0  0  0  0  0  0  0
    2.1008   -9.0410   29.1852 N   0  0  0  0  0  0  0  0  0  0  0  0
    3.4829  -10.5697   30.2091 N   0  0  0  0  0  0  0  0  0  0  0  0
   -0.3363   -6.1172   27.5628 C   0  0  0  0  0  0  0  0  0  0  0  0
    3.0331   -7.4400   27.6362 C   0  0  0  0  0  0  0  0  0  0  0  0
    5.4553   -8.5933   27.9644 C   0  0  0  0  0  0  0  0  0  0  0  0
   -2.3870  -12.8440   19.2512 C   0  0  0  0  0  0  0  0  0  0  0  0
    0.5331   -7.6964   16.2751 C   0  0  0  0  0  0  0  0  0  0  0  0
   -0.6740  -10.8737   18.0482 C   0  0  0  0  0  0  0  0  0  0  0  0
    5.6751  -10.5870   29.7637 O   0  0  0  0  0  0  0  0  0  0  0  0
    1.7612   -5.6483   26.7172 C   0  0  0  0  0  0  0  0  0  0  0  0
    0.2221   -9.8326   17.4055 C   0  0  0  0  0  0  0  0  0  0  0  0
    4.3850   -9.0730   28.6745 C   0  0  0  0  0  0  0  0  0  0  0  0
  1  7  4  0
  1 22  4  0
  2 17  4  0
  2 20  4  0
  2 28  4  0
  3  6  1  0
  3 19  1  0
  4 19  1  0
  4 26  1  0
  5 17  4  0
  5 18  4  0
  6 20  1  0
  6 26  1  0
  7 24  4  0
  8 15  4  0
  8 24  4  0
  9 14  4  0
  9 21  4  0
 10 12  4  0
 10 27  4  0
 11 12  4  0
 11 23  4  0
 13 23  4  0
 13 27  4  0
 14 20  4  0
 15 22  4  0
 16 18  4  0
 16 25  2  0
 16 28  4  0
 21 28  4  0
 24 27  1  0
M  END
$$$$

 Created by Python create_sdf_string function

 28 31  0  0  0  0  0  0  0  0999 V2000
   -1.0054  -13.0622   19.1198 C   0  0  0  0  0  0  0  0  0  0  0  0
    3.1478   -8.5360   28.5161 C   0  0  0  0  0  0  0  0  0  0  0  0
    0.5798   -7.1906   27.9330 C   0  0  0  0  0  0  0  0  0  0  0  0
    0.3978   -5.1561   26.6955 C   0  0  0  0  0  0  0  0  0  0  0  0
    2.3063  -10.0533   30.0125 C   0  0  0  0  0  0  0  0  0  0  0  0
    1.8591   -6.8254   27.4685 N   0  0  0  0  0  0  0  0  0  0  0  0
   -0.2167  -12.1055   18.5568 C   0  0  0  0  0  0  0  0  0  0  0  0
   -2.0661  -10.6994   18.1916 C   0  0  0  0  0  0  0  0  0  0  0  0
    5.2703   -7.5691   27.1123 C   0  0  0  0  0  0  0  0  0  0  0  0
    1.6204   -9.9887   17.2935 C   0  0  0  0  0  0  0  0  0  0  0  0
    1.8931   -7.9265   16.2047 C   0  0  0  0  0  0  0  0  0  0  0  0
    2.4396   -9.0801   16.7132 C   0  0  0  0  0  0  0  0  0  0  0  0
   -0.2575   -8.6234   16.8582 C   0  0  0  0  0  0  0  0  0  0  0  0
    4.0614   -7.0367   27.0106 N   0  0  0  0  0  0  0  0  0  0  0  0
   -2.9133  -11.6279   18.7578 C   0  0  0  0  0  0  0  0  0  0  0  0
    4.5688  -10.1291   29.5758 C   0  0  0  0  0  0  0  0  0  0  0  0
    2.1008   -9.0410   29.1852 N   0  0  0  0  0  0  0  0  0  0  0  0
    3.4829  -10.5697   30.2091 N   0  0  0  0  0  0  0  0  0  0  0  0
   -0.3363   -6.1172   27.5628 C   0  0  0  0  0  0  0  0  0  0  0  0
    3.0331   -7.4400   27.6362 C   0  0  0  0  0  0  0  0  0  0  0  0
    5.4553   -8.5933   27.9644 C   0  0  0  0  0  0  0  0  0  0  0  0
   -2.3870  -12.8440   19.2512 C   0  0  0  0  0  0  0  0  0  0  0  0
    0.5331   -7.6964   16.2751 C   0  0  0  0  0  0  0  0  0  0  0  0
   -0.6740  -10.8737   18.0482 C   0  0  0  0  0  0  0  0  0  0  0  0
    5.6751  -10.5870   29.7637 O   0  0  0  0  0  0  0  0  0  0  0  0
    1.7612   -5.6483   26.7172 C   0  0  0  0  0  0  0  0  0  0  0  0
    0.2221   -9.8326   17.4055 C   0  0  0  0  0  0  0  0  0  0  0  0
    4.3850   -9.0730   28.6745 C   0  0  0  0  0  0  0  0  0  0  0  0
  1  7  4  0
  1 22  4  0
  2 17  4  0
  2 20  4  0
  2 28  4  0
  3  6  1  0
  3 19  1  0
  4 19  1  0
  4 26  1  0
  5 17  4  0
  5 18  4  0
  6 20  1  0
  6 26  1  0
  7 24  4  0
  8 15  4  0
  8 24  4  0
  9 14  4  0
  9 21  4  0
 10 12  4  0
 10 27  4  0
 11 12  4  0
 11 23  4  0
 13 23  4  0
 13 27  4  0
 14 20  4  0
 15 22  4  0
 16 18  4  0
 16 25  2  0
 16 28  4  0
 21 28  4  0
 24 27  1  0
M  END
$$$$

 Created by Python create_sdf_string function

 28 31  0  0  0  0  0  0  0  0999 V2000
   -1.0054  -13.0622   19.1198 C   0  0  0  0  0  0  0  0  0  0  0  0
    3.1478   -8.5360   28.5161 C   0  0  0  0  0  0  0  0  0  0  0  0
    0.5798   -7.1906   27.9330 C   0  0  0  0  0  0  0  0  0  0  0  0
    0.3978   -5.1561   26.6955 C   0  0  0  0  0  0  0  0  0  0  0  0
    2.3063  -10.0533   30.0125 C   0  0  0  0  0  0  0  0  0  0  0  0
    1.8591   -6.8254   27.4685 N   0  0  0  0  0  0  0  0  0  0  0  0
   -0.2167  -12.1055   18.5568 C   0  0  0  0  0  0  0  0  0  0  0  0
   -2.0661  -10.6994   18.1916 C   0  0  0  0  0  0  0  0  0  0  0  0
    5.2703   -7.5691   27.1123 C   0  0  0  0  0  0  0  0  0  0  0  0
    1.6204   -9.9887   17.2935 C   0  0  0  0  0  0  0  0  0  0  0  0
    1.8931   -7.9265   16.2047 C   0  0  0  0  0  0  0  0  0  0  0  0
    2.4396   -9.0801   16.7132 C   0  0  0  0  0  0  0  0  0  0  0  0
   -0.2575   -8.6234   16.8582 C   0  0  0  0  0  0  0  0  0  0  0  0
    4.0614   -7.0367   27.0106 N   0  0  0  0  0  0  0  0  0  0  0  0
   -2.9133  -11.6279   18.7578 C   0  0  0  0  0  0  0  0  0  0  0  0
    4.5688  -10.1291   29.5758 C   0  0  0  0  0  0  0  0  0  0  0  0
    2.1008   -9.0410   29.1852 N   0  0  0  0  0  0  0  0  0  0  0  0
    3.4829  -10.5697   30.2091 N   0  0  0  0  0  0  0  0  0  0  0  0
   -0.3363   -6.1172   27.5628 C   0  0  0  0  0  0  0  0  0  0  0  0
    3.0331   -7.4400   27.6362 C   0  0  0  0  0  0  0  0  0  0  0  0
    5.4553   -8.5933   27.9644 C   0  0  0  0  0  0  0  0  0  0  0  0
   -2.3870  -12.8440   19.2512 C   0  0  0  0  0  0  0  0  0  0  0  0
    0.5331   -7.6964   16.2751 C   0  0  0  0  0  0  0  0  0  0  0  0
   -0.6740  -10.8737   18.0482 C   0  0  0  0  0  0  0  0  0  0  0  0
    5.6751  -10.5870   29.7637 O   0  0  0  0  0  0  0  0  0  0  0  0
    1.7612   -5.6483   26.7172 C   0  0  0  0  0  0  0  0  0  0  0  0
    0.2221   -9.8326   17.4055 C   0  0  0  0  0  0  0  0  0  0  0  0
    4.3850   -9.0730   28.6745 C   0  0  0  0  0  0  0  0  0  0  0  0
  1  7  4  0
  1 22  4  0
  2 17  4  0
  2 20  4  0
  2 28  4  0
  3  6  1  0
  3 19  1  0
  4 19  1  0
  4 26  1  0
  5 17  4  0
  5 18  4  0
  6 20  1  0
  6 26  1  0
  7 24  4  0
  8 15  4  0
  8 24  4  0
  9 14  4  0
  9 21  4  0
 10 12  4  0
 10 27  4  0
 11 12  4  0
 11 23  4  0
 13 23  4  0
 13 27  4  0
 14 20  4  0
 15 22  4  0
 16 18  4  0
 16 25  2  0
 16 28  4  0
 21 28  4  0
 24 27  1  0
M  END
$$$$

 Created by Python create_sdf_string function

 28 31  0  0  0  0  0  0  0  0999 V2000
   -1.0054  -13.0622   19.1198 C   0  0  0  0  0  0  0  0  0  0  0  0
    3.1478   -8.5360   28.5161 C   0  0  0  0  0  0  0  0  0  0  0  0
    0.5798   -7.1906   27.9330 C   0  0  0  0  0  0  0  0  0  0  0  0
    0.3978   -5.1561   26.6955 C   0  0  0  0  0  0  0  0  0  0  0  0
    2.3063  -10.0533   30.0125 C   0  0  0  0  0  0  0  0  0  0  0  0
    1.8591   -6.8254   27.4685 N   0  0  0  0  0  0  0  0  0  0  0  0
   -0.2167  -12.1055   18.5568 C   0  0  0  0  0  0  0  0  0  0  0  0
   -2.0661  -10.6994   18.1916 C   0  0  0  0  0  0  0  0  0  0  0  0
    5.2703   -7.5691   27.1123 C   0  0  0  0  0  0  0  0  0  0  0  0
    1.6204   -9.9887   17.2935 C   0  0  0  0  0  0  0  0  0  0  0  0
    1.8931   -7.9265   16.2047 C   0  0  0  0  0  0  0  0  0  0  0  0
    2.4396   -9.0801   16.7132 C   0  0  0  0  0  0  0  0  0  0  0  0
   -0.2575   -8.6234   16.8582 C   0  0  0  0  0  0  0  0  0  0  0  0
    4.0614   -7.0367   27.0106 N   0  0  0  0  0  0  0  0  0  0  0  0
   -2.9133  -11.6279   18.7578 C   0  0  0  0  0  0  0  0  0  0  0  0
    4.5688  -10.1291   29.5758 C   0  0  0  0  0  0  0  0  0  0  0  0
    2.1008   -9.0410   29.1852 N   0  0  0  0  0  0  0  0  0  0  0  0
    3.4829  -10.5697   30.2091 N   0  0  0  0  0  0  0  0  0  0  0  0
   -0.3363   -6.1172   27.5628 C   0  0  0  0  0  0  0  0  0  0  0  0
    3.0331   -7.4400   27.6362 C   0  0  0  0  0  0  0  0  0  0  0  0
    5.4553   -8.5933   27.9644 C   0  0  0  0  0  0  0  0  0  0  0  0
   -2.3870  -12.8440   19.2512 C   0  0  0  0  0  0  0  0  0  0  0  0
    0.5331   -7.6964   16.2751 C   0  0  0  0  0  0  0  0  0  0  0  0
   -0.6740  -10.8737   18.0482 C   0  0  0  0  0  0  0  0  0  0  0  0
    5.6751  -10.5870   29.7637 O   0  0  0  0  0  0  0  0  0  0  0  0
    1.7612   -5.6483   26.7172 C   0  0  0  0  0  0  0  0  0  0  0  0
    0.2221   -9.8326   17.4055 C   0  0  0  0  0  0  0  0  0  0  0  0
    4.3850   -9.0730   28.6745 C   0  0  0  0  0  0  0  0  0  0  0  0
  1  7  4  0
  1 22  4  0
  2 17  4  0
  2 20  4  0
  2 28  4  0
  3  6  1  0
  3 19  1  0
  4 19  1  0
  4 26  1  0
  5 17  4  0
  5 18  4  0
  6 20  1  0
  6 26  1  0
  7 24  4  0
  8 15  4  0
  8 24  4  0
  9 14  4  0
  9 21  4  0
 10 12  4  0
 10 27  4  0
 11 12  4  0
 11 23  4  0
 13 23  4  0
 13 27  4  0
 14 20  4  0
 15 22  4  0
 16 18  4  0
 16 25  2  0
 16 28  4  0
 21 28  4  0
 24 27  1  0
M  END
$$$$

 Created by Python create_sdf_string function

 28 31  0  0  0  0  0  0  0  0999 V2000
   -1.0054  -13.0622   19.1198 C   0  0  0  0  0  0  0  0  0  0  0  0
    3.1478   -8.5360   28.5161 C   0  0  0  0  0  0  0  0  0  0  0  0
    0.5798   -7.1906   27.9330 C   0  0  0  0  0  0  0  0  0  0  0  0
    0.3978   -5.1561   26.6955 C   0  0  0  0  0  0  0  0  0  0  0  0
    2.3063  -10.0533   30.0125 C   0  0  0  0  0  0  0  0  0  0  0  0
    1.8591   -6.8254   27.4685 N   0  0  0  0  0  0  0  0  0  0  0  0
   -0.2167  -12.1055   18.5568 C   0  0  0  0  0  0  0  0  0  0  0  0
   -2.0661  -10.6994   18.1916 C   0  0  0  0  0  0  0  0  0  0  0  0
    5.2703   -7.5691   27.1123 C   0  0  0  0  0  0  0  0  0  0  0  0
    1.6204   -9.9887   17.2935 C   0  0  0  0  0  0  0  0  0  0  0  0
    1.8931   -7.9265   16.2047 C   0  0  0  0  0  0  0  0  0  0  0  0
    2.4396   -9.0801   16.7132 C   0  0  0  0  0  0  0  0  0  0  0  0
   -0.2575   -8.6234   16.8582 C   0  0  0  0  0  0  0  0  0  0  0  0
    4.0614   -7.0367   27.0106 N   0  0  0  0  0  0  0  0  0  0  0  0
   -2.9133  -11.6279   18.7578 C   0  0  0  0  0  0  0  0  0  0  0  0
    4.5688  -10.1291   29.5758 C   0  0  0  0  0  0  0  0  0  0  0  0
    2.1008   -9.0410   29.1852 N   0  0  0  0  0  0  0  0  0  0  0  0
    3.4829  -10.5697   30.2091 N   0  0  0  0  0  0  0  0  0  0  0  0
   -0.3363   -6.1172   27.5628 C   0  0  0  0  0  0  0  0  0  0  0  0
    3.0331   -7.4400   27.6362 C   0  0  0  0  0  0  0  0  0  0  0  0
    5.4553   -8.5933   27.9644 C   0  0  0  0  0  0  0  0  0  0  0  0
   -2.3870  -12.8440   19.2512 C   0  0  0  0  0  0  0  0  0  0  0  0
    0.5331   -7.6964   16.2751 C   0  0  0  0  0  0  0  0  0  0  0  0
   -0.6740  -10.8737   18.0482 C   0  0  0  0  0  0  0  0  0  0  0  0
    5.6751  -10.5870   29.7637 O   0  0  0  0  0  0  0  0  0  0  0  0
    1.7612   -5.6483   26.7172 C   0  0  0  0  0  0  0  0  0  0  0  0
    0.2221   -9.8326   17.4055 C   0  0  0  0  0  0  0  0  0  0  0  0
    4.3850   -9.0730   28.6745 C   0  0  0  0  0  0  0  0  0  0  0  0
  1  7  4  0
  1 22  4  0
  2 17  4  0
  2 20  4  0
  2 28  4  0
  3  6  1  0
  3 19  1  0
  4 19  1  0
  4 26  1  0
  5 17  4  0
  5 18  4  0
  6 20  1  0
  6 26  1  0
  7 24  4  0
  8 15  4  0
  8 24  4  0
  9 14  4  0
  9 21  4  0
 10 12  4  0
 10 27  4  0
 11 12  4  0
 11 23  4  0
 13 23  4  0
 13 27  4  0
 14 20  4  0
 15 22  4  0
 16 18  4  0
 16 25  2  0
 16 28  4  0
 21 28  4  0
 24 27  1  0
M  END
$$$$

 Created by Python create_sdf_string function

 28 31  0  0  0  0  0  0  0  0999 V2000
   -1.0054  -13.0622   19.1198 C   0  0  0  0  0  0  0  0  0  0  0  0
    3.1478   -8.5360   28.5161 C   0  0  0  0  0  0  0  0  0  0  0  0
    0.5798   -7.1906   27.9330 C   0  0  0  0  0  0  0  0  0  0  0  0
    0.3978   -5.1561   26.6955 C   0  0  0  0  0  0  0  0  0  0  0  0
    2.3063  -10.0533   30.0125 C   0  0  0  0  0  0  0  0  0  0  0  0
    1.8591   -6.8254   27.4685 N   0  0  0  0  0  0  0  0  0  0  0  0
   -0.2167  -12.1055   18.5568 C   0  0  0  0  0  0  0  0  0  0  0  0
   -2.0661  -10.6994   18.1916 C   0  0  0  0  0  0  0  0  0  0  0  0
    5.2703   -7.5691   27.1123 C   0  0  0  0  0  0  0  0  0  0  0  0
    1.6204   -9.9887   17.2935 C   0  0  0  0  0  0  0  0  0  0  0  0
    1.8931   -7.9265   16.2047 C   0  0  0  0  0  0  0  0  0  0  0  0
    2.4396   -9.0801   16.7132 C   0  0  0  0  0  0  0  0  0  0  0  0
   -0.2575   -8.6234   16.8582 C   0  0  0  0  0  0  0  0  0  0  0  0
    4.0614   -7.0367   27.0106 N   0  0  0  0  0  0  0  0  0  0  0  0
   -2.9133  -11.6279   18.7578 C   0  0  0  0  0  0  0  0  0  0  0  0
    4.5688  -10.1291   29.5758 C   0  0  0  0  0  0  0  0  0  0  0  0
    2.1008   -9.0410   29.1852 N   0  0  0  0  0  0  0  0  0  0  0  0
    3.4829  -10.5697   30.2091 N   0  0  0  0  0  0  0  0  0  0  0  0
   -0.3363   -6.1172   27.5628 C   0  0  0  0  0  0  0  0  0  0  0  0
    3.0331   -7.4400   27.6362 C   0  0  0  0  0  0  0  0  0  0  0  0
    5.4553   -8.5933   27.9644 C   0  0  0  0  0  0  0  0  0  0  0  0
   -2.3870  -12.8440   19.2512 C   0  0  0  0  0  0  0  0  0  0  0  0
    0.5331   -7.6964   16.2751 C   0  0  0  0  0  0  0  0  0  0  0  0
   -0.6740  -10.8737   18.0482 C   0  0  0  0  0  0  0  0  0  0  0  0
    5.6751  -10.5870   29.7637 O   0  0  0  0  0  0  0  0  0  0  0  0
    1.7612   -5.6483   26.7172 C   0  0  0  0  0  0  0  0  0  0  0  0
    0.2221   -9.8326   17.4055 C   0  0  0  0  0  0  0  0  0  0  0  0
    4.3850   -9.0730   28.6745 C   0  0  0  0  0  0  0  0  0  0  0  0
  1  7  4  0
  1 22  4  0
  2 17  4  0
  2 20  4  0
  2 28  4  0
  3  6  1  0
  3 19  1  0
  4 19  1  0
  4 26  1  0
  5 17  4  0
  5 18  4  0
  6 20  1  0
  6 26  1  0
  7 24  4  0
  8 15  4  0
  8 24  4  0
  9 14  4  0
  9 21  4  0
 10 12  4  0
 10 27  4  0
 11 12  4  0
 11 23  4  0
 13 23  4  0
 13 27  4  0
 14 20  4  0
 15 22  4  0
 16 18  4  0
 16 25  2  0
 16 28  4  0
 21 28  4  0
 24 27  1  0
M  END
$$$$

 Created by Python create_sdf_string function

 28 31  0  0  0  0  0  0  0  0999 V2000
   -1.0054  -13.0622   19.1198 C   0  0  0  0  0  0  0  0  0  0  0  0
    3.1478   -8.5360   28.5161 C   0  0  0  0  0  0  0  0  0  0  0  0
    0.5798   -7.1906   27.9330 C   0  0  0  0  0  0  0  0  0  0  0  0
    0.3978   -5.1561   26.6955 C   0  0  0  0  0  0  0  0  0  0  0  0
    2.3063  -10.0533   30.0125 C   0  0  0  0  0  0  0  0  0  0  0  0
    1.8591   -6.8254   27.4685 N   0  0  0  0  0  0  0  0  0  0  0  0
   -0.2167  -12.1055   18.5568 C   0  0  0  0  0  0  0  0  0  0  0  0
   -2.0661  -10.6994   18.1916 C   0  0  0  0  0  0  0  0  0  0  0  0
    5.2703   -7.5691   27.1123 C   0  0  0  0  0  0  0  0  0  0  0  0
    1.6204   -9.9887   17.2935 C   0  0  0  0  0  0  0  0  0  0  0  0
    1.8931   -7.9265   16.2047 C   0  0  0  0  0  0  0  0  0  0  0  0
    2.4396   -9.0801   16.7132 C   0  0  0  0  0  0  0  0  0  0  0  0
   -0.2575   -8.6234   16.8582 C   0  0  0  0  0  0  0  0  0  0  0  0
    4.0614   -7.0367   27.0106 N   0  0  0  0  0  0  0  0  0  0  0  0
   -2.9133  -11.6279   18.7578 C   0  0  0  0  0  0  0  0  0  0  0  0
    4.5688  -10.1291   29.5758 C   0  0  0  0  0  0  0  0  0  0  0  0
    2.1008   -9.0410   29.1852 N   0  0  0  0  0  0  0  0  0  0  0  0
    3.4829  -10.5697   30.2091 N   0  0  0  0  0  0  0  0  0  0  0  0
   -0.3363   -6.1172   27.5628 C   0  0  0  0  0  0  0  0  0  0  0  0
    3.0331   -7.4400   27.6362 C   0  0  0  0  0  0  0  0  0  0  0  0
    5.4553   -8.5933   27.9644 C   0  0  0  0  0  0  0  0  0  0  0  0
   -2.3870  -12.8440   19.2512 C   0  0  0  0  0  0  0  0  0  0  0  0
    0.5331   -7.6964   16.2751 C   0  0  0  0  0  0  0  0  0  0  0  0
   -0.6740  -10.8737   18.0482 C   0  0  0  0  0  0  0  0  0  0  0  0
    5.6751  -10.5870   29.7637 O   0  0  0  0  0  0  0  0  0  0  0  0
    1.7612   -5.6483   26.7172 C   0  0  0  0  0  0  0  0  0  0  0  0
    0.2221   -9.8326   17.4055 C   0  0  0  0  0  0  0  0  0  0  0  0
    4.3850   -9.0730   28.6745 C   0  0  0  0  0  0  0  0  0  0  0  0
  1  7  4  0
  1 22  4  0
  2 17  4  0
  2 20  4  0
  2 28  4  0
  3  6  1  0
  3 19  1  0
  4 19  1  0
  4 26  1  0
  5 17  4  0
  5 18  4  0
  6 20  1  0
  6 26  1  0
  7 24  4  0
  8 15  4  0
  8 24  4  0
  9 14  4  0
  9 21  4  0
 10 12  4  0
 10 27  4  0
 11 12  4  0
 11 23  4  0
 13 23  4  0
 13 27  4  0
 14 20  4  0
 15 22  4  0
 16 18  4  0
 16 25  2  0
 16 28  4  0
 21 28  4  0
 24 27  1  0
M  END
$$$$

 Created by Python create_sdf_string function

 28 31  0  0  0  0  0  0  0  0999 V2000
   -1.0054  -13.0622   19.1198 C   0  0  0  0  0  0  0  0  0  0  0  0
    3.1478   -8.5360   28.5161 C   0  0  0  0  0  0  0  0  0  0  0  0
    0.5798   -7.1906   27.9330 C   0  0  0  0  0  0  0  0  0  0  0  0
    0.3978   -5.1561   26.6955 C   0  0  0  0  0  0  0  0  0  0  0  0
    2.3063  -10.0533   30.0125 C   0  0  0  0  0  0  0  0  0  0  0  0
    1.8591   -6.8254   27.4685 N   0  0  0  0  0  0  0  0  0  0  0  0
   -0.2167  -12.1055   18.5568 C   0  0  0  0  0  0  0  0  0  0  0  0
   -2.0661  -10.6994   18.1916 C   0  0  0  0  0  0  0  0  0  0  0  0
    5.2703   -7.5691   27.1123 C   0  0  0  0  0  0  0  0  0  0  0  0
    1.6204   -9.9887   17.2935 C   0  0  0  0  0  0  0  0  0  0  0  0
    1.8931   -7.9265   16.2047 C   0  0  0  0  0  0  0  0  0  0  0  0
    2.4396   -9.0801   16.7132 C   0  0  0  0  0  0  0  0  0  0  0  0
   -0.2575   -8.6234   16.8582 C   0  0  0  0  0  0  0  0  0  0  0  0
    4.0614   -7.0367   27.0106 N   0  0  0  0  0  0  0  0  0  0  0  0
   -2.9133  -11.6279   18.7578 C   0  0  0  0  0  0  0  0  0  0  0  0
    4.5688  -10.1291   29.5758 C   0  0  0  0  0  0  0  0  0  0  0  0
    2.1008   -9.0410   29.1852 N   0  0  0  0  0  0  0  0  0  0  0  0
    3.4829  -10.5697   30.2091 N   0  0  0  0  0  0  0  0  0  0  0  0
   -0.3363   -6.1172   27.5628 C   0  0  0  0  0  0  0  0  0  0  0  0
    3.0331   -7.4400   27.6362 C   0  0  0  0  0  0  0  0  0  0  0  0
    5.4553   -8.5933   27.9644 C   0  0  0  0  0  0  0  0  0  0  0  0
   -2.3870  -12.8440   19.2512 C   0  0  0  0  0  0  0  0  0  0  0  0
    0.5331   -7.6964   16.2751 C   0  0  0  0  0  0  0  0  0  0  0  0
   -0.6740  -10.8737   18.0482 C   0  0  0  0  0  0  0  0  0  0  0  0
    5.6751  -10.5870   29.7637 O   0  0  0  0  0  0  0  0  0  0  0  0
    1.7612   -5.6483   26.7172 C   0  0  0  0  0  0  0  0  0  0  0  0
    0.2221   -9.8326   17.4055 C   0  0  0  0  0  0  0  0  0  0  0  0
    4.3850   -9.0730   28.6745 C   0  0  0  0  0  0  0  0  0  0  0  0
  1  7  4  0
  1 22  4  0
  2 17  4  0
  2 20  4  0
  2 28  4  0
  3  6  1  0
  3 19  1  0
  4 19  1  0
  4 26  1  0
  5 17  4  0
  5 18  4  0
  6 20  1  0
  6 26  1  0
  7 24  4  0
  8 15  4  0
  8 24  4  0
  9 14  4  0
  9 21  4  0
 10 12  4  0
 10 27  4  0
 11 12  4  0
 11 23  4  0
 13 23  4  0
 13 27  4  0
 14 20  4  0
 15 22  4  0
 16 18  4  0
 16 25  2  0
 16 28  4  0
 21 28  4  0
 24 27  1  0
M  END
$$$$

 Created by Python create_sdf_string function

 28 31  0  0  0  0  0  0  0  0999 V2000
   -1.0054  -13.0622   19.1198 C   0  0  0  0  0  0  0  0  0  0  0  0
    3.1478   -8.5360   28.5161 C   0  0  0  0  0  0  0  0  0  0  0  0
    0.5798   -7.1906   27.9330 C   0  0  0  0  0  0  0  0  0  0  0  0
    0.3978   -5.1561   26.6955 C   0  0  0  0  0  0  0  0  0  0  0  0
    2.3063  -10.0533   30.0125 C   0  0  0  0  0  0  0  0  0  0  0  0
    1.8591   -6.8254   27.4685 N   0  0  0  0  0  0  0  0  0  0  0  0
   -0.2167  -12.1055   18.5568 C   0  0  0  0  0  0  0  0  0  0  0  0
   -2.0661  -10.6994   18.1916 C   0  0  0  0  0  0  0  0  0  0  0  0
    5.2703   -7.5691   27.1123 C   0  0  0  0  0  0  0  0  0  0  0  0
    1.6204   -9.9887   17.2935 C   0  0  0  0  0  0  0  0  0  0  0  0
    1.8931   -7.9265   16.2047 C   0  0  0  0  0  0  0  0  0  0  0  0
    2.4396   -9.0801   16.7132 C   0  0  0  0  0  0  0  0  0  0  0  0
   -0.2575   -8.6234   16.8582 C   0  0  0  0  0  0  0  0  0  0  0  0
    4.0614   -7.0367   27.0106 N   0  0  0  0  0  0  0  0  0  0  0  0
   -2.9133  -11.6279   18.7578 C   0  0  0  0  0  0  0  0  0  0  0  0
    4.5688  -10.1291   29.5758 C   0  0  0  0  0  0  0  0  0  0  0  0
    2.1008   -9.0410   29.1852 N   0  0  0  0  0  0  0  0  0  0  0  0
    3.4829  -10.5697   30.2091 N   0  0  0  0  0  0  0  0  0  0  0  0
   -0.3363   -6.1172   27.5628 C   0  0  0  0  0  0  0  0  0  0  0  0
    3.0331   -7.4400   27.6362 C   0  0  0  0  0  0  0  0  0  0  0  0
    5.4553   -8.5933   27.9644 C   0  0  0  0  0  0  0  0  0  0  0  0
   -2.3870  -12.8440   19.2512 C   0  0  0  0  0  0  0  0  0  0  0  0
    0.5331   -7.6964   16.2751 C   0  0  0  0  0  0  0  0  0  0  0  0
   -0.6740  -10.8737   18.0482 C   0  0  0  0  0  0  0  0  0  0  0  0
    5.6751  -10.5870   29.7637 O   0  0  0  0  0  0  0  0  0  0  0  0
    1.7612   -5.6483   26.7172 C   0  0  0  0  0  0  0  0  0  0  0  0
    0.2221   -9.8326   17.4055 C   0  0  0  0  0  0  0  0  0  0  0  0
    4.3850   -9.0730   28.6745 C   0  0  0  0  0  0  0  0  0  0  0  0
  1  7  4  0
  1 22  4  0
  2 17  4  0
  2 20  4  0
  2 28  4  0
  3  6  1  0
  3 19  1  0
  4 19  1  0
  4 26  1  0
  5 17  4  0
  5 18  4  0
  6 20  1  0
  6 26  1  0
  7 24  4  0
  8 15  4  0
  8 24  4  0
  9 14  4  0
  9 21  4  0
 10 12  4  0
 10 27  4  0
 11 12  4  0
 11 23  4  0
 13 23  4  0
 13 27  4  0
 14 20  4  0
 15 22  4  0
 16 18  4  0
 16 25  2  0
 16 28  4  0
 21 28  4  0
 24 27  1  0
M  END
$$$$

 Created by Python create_sdf_string function

 28 31  0  0  0  0  0  0  0  0999 V2000
   -1.0054  -13.0622   19.1198 C   0  0  0  0  0  0  0  0  0  0  0  0
    3.1478   -8.5360   28.5161 C   0  0  0  0  0  0  0  0  0  0  0  0
    0.5798   -7.1906   27.9330 C   0  0  0  0  0  0  0  0  0  0  0  0
    0.3978   -5.1561   26.6955 C   0  0  0  0  0  0  0  0  0  0  0  0
    2.3063  -10.0533   30.0125 C   0  0  0  0  0  0  0  0  0  0  0  0
    1.8591   -6.8254   27.4685 N   0  0  0  0  0  0  0  0  0  0  0  0
   -0.2167  -12.1055   18.5568 C   0  0  0  0  0  0  0  0  0  0  0  0
   -2.0661  -10.6994   18.1916 C   0  0  0  0  0  0  0  0  0  0  0  0
    5.2703   -7.5691   27.1123 C   0  0  0  0  0  0  0  0  0  0  0  0
    1.6204   -9.9887   17.2935 C   0  0  0  0  0  0  0  0  0  0  0  0
    1.8931   -7.9265   16.2047 C   0  0  0  0  0  0  0  0  0  0  0  0
    2.4396   -9.0801   16.7132 C   0  0  0  0  0  0  0  0  0  0  0  0
   -0.2575   -8.6234   16.8582 C   0  0  0  0  0  0  0  0  0  0  0  0
    4.0614   -7.0367   27.0106 N   0  0  0  0  0  0  0  0  0  0  0  0
   -2.9133  -11.6279   18.7578 C   0  0  0  0  0  0  0  0  0  0  0  0
    4.5688  -10.1291   29.5758 C   0  0  0  0  0  0  0  0  0  0  0  0
    2.1008   -9.0410   29.1852 N   0  0  0  0  0  0  0  0  0  0  0  0
    3.4829  -10.5697   30.2091 N   0  0  0  0  0  0  0  0  0  0  0  0
   -0.3363   -6.1172   27.5628 C   0  0  0  0  0  0  0  0  0  0  0  0
    3.0331   -7.4400   27.6362 C   0  0  0  0  0  0  0  0  0  0  0  0
    5.4553   -8.5933   27.9644 C   0  0  0  0  0  0  0  0  0  0  0  0
   -2.3870  -12.8440   19.2512 C   0  0  0  0  0  0  0  0  0  0  0  0
    0.5331   -7.6964   16.2751 C   0  0  0  0  0  0  0  0  0  0  0  0
   -0.6740  -10.8737   18.0482 C   0  0  0  0  0  0  0  0  0  0  0  0
    5.6751  -10.5870   29.7637 O   0  0  0  0  0  0  0  0  0  0  0  0
    1.7612   -5.6483   26.7172 C   0  0  0  0  0  0  0  0  0  0  0  0
    0.2221   -9.8326   17.4055 C   0  0  0  0  0  0  0  0  0  0  0  0
    4.3850   -9.0730   28.6745 C   0  0  0  0  0  0  0  0  0  0  0  0
  1  7  4  0
  1 22  4  0
  2 17  4  0
  2 20  4  0
  2 28  4  0
  3  6  1  0
  3 19  1  0
  4 19  1  0
  4 26  1  0
  5 17  4  0
  5 18  4  0
  6 20  1  0
  6 26  1  0
  7 24  4  0
  8 15  4  0
  8 24  4  0
  9 14  4  0
  9 21  4  0
 10 12  4  0
 10 27  4  0
 11 12  4  0
 11 23  4  0
 13 23  4  0
 13 27  4  0
 14 20  4  0
 15 22  4  0
 16 18  4  0
 16 25  2  0
 16 28  4  0
 21 28  4  0
 24 27  1  0
M  END
$$$$

 Created by Python create_sdf_string function

 28 31  0  0  0  0  0  0  0  0999 V2000
   -1.0054  -13.0622   19.1198 C   0  0  0  0  0  0  0  0  0  0  0  0
    3.1478   -8.5360   28.5161 C   0  0  0  0  0  0  0  0  0  0  0  0
    0.5798   -7.1906   27.9330 C   0  0  0  0  0  0  0  0  0  0  0  0
    0.3978   -5.1561   26.6955 C   0  0  0  0  0  0  0  0  0  0  0  0
    2.3063  -10.0533   30.0125 C   0  0  0  0  0  0  0  0  0  0  0  0
    1.8591   -6.8254   27.4685 N   0  0  0  0  0  0  0  0  0  0  0  0
   -0.2167  -12.1055   18.5568 C   0  0  0  0  0  0  0  0  0  0  0  0
   -2.0661  -10.6994   18.1916 C   0  0  0  0  0  0  0  0  0  0  0  0
    5.2703   -7.5691   27.1123 C   0  0  0  0  0  0  0  0  0  0  0  0
    1.6204   -9.9887   17.2935 C   0  0  0  0  0  0  0  0  0  0  0  0
    1.8931   -7.9265   16.2047 C   0  0  0  0  0  0  0  0  0  0  0  0
    2.4396   -9.0801   16.7132 C   0  0  0  0  0  0  0  0  0  0  0  0
   -0.2575   -8.6234   16.8582 C   0  0  0  0  0  0  0  0  0  0  0  0
    4.0614   -7.0367   27.0106 N   0  0  0  0  0  0  0  0  0  0  0  0
   -2.9133  -11.6279   18.7578 C   0  0  0  0  0  0  0  0  0  0  0  0
    4.5688  -10.1291   29.5758 C   0  0  0  0  0  0  0  0  0  0  0  0
    2.1008   -9.0410   29.1852 N   0  0  0  0  0  0  0  0  0  0  0  0
    3.4829  -10.5697   30.2091 N   0  0  0  0  0  0  0  0  0  0  0  0
   -0.3363   -6.1172   27.5628 C   0  0  0  0  0  0  0  0  0  0  0  0
    3.0331   -7.4400   27.6362 C   0  0  0  0  0  0  0  0  0  0  0  0
    5.4553   -8.5933   27.9644 C   0  0  0  0  0  0  0  0  0  0  0  0
   -2.3870  -12.8440   19.2512 C   0  0  0  0  0  0  0  0  0  0  0  0
    0.5331   -7.6964   16.2751 C   0  0  0  0  0  0  0  0  0  0  0  0
   -0.6740  -10.8737   18.0482 C   0  0  0  0  0  0  0  0  0  0  0  0
    5.6751  -10.5870   29.7637 O   0  0  0  0  0  0  0  0  0  0  0  0
    1.7612   -5.6483   26.7172 C   0  0  0  0  0  0  0  0  0  0  0  0
    0.2221   -9.8326   17.4055 C   0  0  0  0  0  0  0  0  0  0  0  0
    4.3850   -9.0730   28.6745 C   0  0  0  0  0  0  0  0  0  0  0  0
  1  7  4  0
  1 22  4  0
  2 17  4  0
  2 20  4  0
  2 28  4  0
  3  6  1  0
  3 19  1  0
  4 19  1  0
  4 26  1  0
  5 17  4  0
  5 18  4  0
  6 20  1  0
  6 26  1  0
  7 24  4  0
  8 15  4  0
  8 24  4  0
  9 14  4  0
  9 21  4  0
 10 12  4  0
 10 27  4  0
 11 12  4  0
 11 23  4  0
 13 23  4  0
 13 27  4  0
 14 20  4  0
 15 22  4  0
 16 18  4  0
 16 25  2  0
 16 28  4  0
 21 28  4  0
 24 27  1  0
M  END
$$$$

 Created by Python create_sdf_string function

 28 31  0  0  0  0  0  0  0  0999 V2000
   -1.0054  -13.0622   19.1198 C   0  0  0  0  0  0  0  0  0  0  0  0
    3.1478   -8.5360   28.5161 C   0  0  0  0  0  0  0  0  0  0  0  0
    0.5798   -7.1906   27.9330 C   0  0  0  0  0  0  0  0  0  0  0  0
    0.3978   -5.1561   26.6955 C   0  0  0  0  0  0  0  0  0  0  0  0
    2.3063  -10.0533   30.0125 C   0  0  0  0  0  0  0  0  0  0  0  0
    1.8591   -6.8254   27.4685 N   0  0  0  0  0  0  0  0  0  0  0  0
   -0.2167  -12.1055   18.5568 C   0  0  0  0  0  0  0  0  0  0  0  0
   -2.0661  -10.6994   18.1916 C   0  0  0  0  0  0  0  0  0  0  0  0
    5.2703   -7.5691   27.1123 C   0  0  0  0  0  0  0  0  0  0  0  0
    1.6204   -9.9887   17.2935 C   0  0  0  0  0  0  0  0  0  0  0  0
    1.8931   -7.9265   16.2047 C   0  0  0  0  0  0  0  0  0  0  0  0
    2.4396   -9.0801   16.7132 C   0  0  0  0  0  0  0  0  0  0  0  0
   -0.2575   -8.6234   16.8582 C   0  0  0  0  0  0  0  0  0  0  0  0
    4.0614   -7.0367   27.0106 N   0  0  0  0  0  0  0  0  0  0  0  0
   -2.9133  -11.6279   18.7578 C   0  0  0  0  0  0  0  0  0  0  0  0
    4.5688  -10.1291   29.5758 C   0  0  0  0  0  0  0  0  0  0  0  0
    2.1008   -9.0410   29.1852 N   0  0  0  0  0  0  0  0  0  0  0  0
    3.4829  -10.5697   30.2091 N   0  0  0  0  0  0  0  0  0  0  0  0
   -0.3363   -6.1172   27.5628 C   0  0  0  0  0  0  0  0  0  0  0  0
    3.0331   -7.4400   27.6362 C   0  0  0  0  0  0  0  0  0  0  0  0
    5.4553   -8.5933   27.9644 C   0  0  0  0  0  0  0  0  0  0  0  0
   -2.3870  -12.8440   19.2512 C   0  0  0  0  0  0  0  0  0  0  0  0
    0.5331   -7.6964   16.2751 C   0  0  0  0  0  0  0  0  0  0  0  0
   -0.6740  -10.8737   18.0482 C   0  0  0  0  0  0  0  0  0  0  0  0
    5.6751  -10.5870   29.7637 O   0  0  0  0  0  0  0  0  0  0  0  0
    1.7612   -5.6483   26.7172 C   0  0  0  0  0  0  0  0  0  0  0  0
    0.2221   -9.8326   17.4055 C   0  0  0  0  0  0  0  0  0  0  0  0
    4.3850   -9.0730   28.6745 C   0  0  0  0  0  0  0  0  0  0  0  0
  1  7  4  0
  1 22  4  0
  2 17  4  0
  2 20  4  0
  2 28  4  0
  3  6  1  0
  3 19  1  0
  4 19  1  0
  4 26  1  0
  5 17  4  0
  5 18  4  0
  6 20  1  0
  6 26  1  0
  7 24  4  0
  8 15  4  0
  8 24  4  0
  9 14  4  0
  9 21  4  0
 10 12  4  0
 10 27  4  0
 11 12  4  0
 11 23  4  0
 13 23  4  0
 13 27  4  0
 14 20  4  0
 15 22  4  0
 16 18  4  0
 16 25  2  0
 16 28  4  0
 21 28  4  0
 24 27  1  0
M  END
$$$$

 Created by Python create_sdf_string function

 28 31  0  0  0  0  0  0  0  0999 V2000
   -1.0054  -13.0622   19.1198 C   0  0  0  0  0  0  0  0  0  0  0  0
    3.1478   -8.5360   28.5161 C   0  0  0  0  0  0  0  0  0  0  0  0
    0.5798   -7.1906   27.9330 C   0  0  0  0  0  0  0  0  0  0  0  0
    0.3978   -5.1561   26.6955 C   0  0  0  0  0  0  0  0  0  0  0  0
    2.3063  -10.0533   30.0125 C   0  0  0  0  0  0  0  0  0  0  0  0
    1.8591   -6.8254   27.4685 N   0  0  0  0  0  0  0  0  0  0  0  0
   -0.2167  -12.1055   18.5568 C   0  0  0  0  0  0  0  0  0  0  0  0
   -2.0661  -10.6994   18.1916 C   0  0  0  0  0  0  0  0  0  0  0  0
    5.2703   -7.5691   27.1123 C   0  0  0  0  0  0  0  0  0  0  0  0
    1.6204   -9.9887   17.2935 C   0  0  0  0  0  0  0  0  0  0  0  0
    1.8931   -7.9265   16.2047 C   0  0  0  0  0  0  0  0  0  0  0  0
    2.4396   -9.0801   16.7132 C   0  0  0  0  0  0  0  0  0  0  0  0
   -0.2575   -8.6234   16.8582 C   0  0  0  0  0  0  0  0  0  0  0  0
    4.0614   -7.0367   27.0106 N   0  0  0  0  0  0  0  0  0  0  0  0
   -2.9133  -11.6279   18.7578 C   0  0  0  0  0  0  0  0  0  0  0  0
    4.5688  -10.1291   29.5758 C   0  0  0  0  0  0  0  0  0  0  0  0
    2.1008   -9.0410   29.1852 N   0  0  0  0  0  0  0  0  0  0  0  0
    3.4829  -10.5697   30.2091 N   0  0  0  0  0  0  0  0  0  0  0  0
   -0.3363   -6.1172   27.5628 C   0  0  0  0  0  0  0  0  0  0  0  0
    3.0331   -7.4400   27.6362 C   0  0  0  0  0  0  0  0  0  0  0  0
    5.4553   -8.5933   27.9644 C   0  0  0  0  0  0  0  0  0  0  0  0
   -2.3870  -12.8440   19.2512 C   0  0  0  0  0  0  0  0  0  0  0  0
    0.5331   -7.6964   16.2751 C   0  0  0  0  0  0  0  0  0  0  0  0
   -0.6740  -10.8737   18.0482 C   0  0  0  0  0  0  0  0  0  0  0  0
    5.6751  -10.5870   29.7637 O   0  0  0  0  0  0  0  0  0  0  0  0
    1.7612   -5.6483   26.7172 C   0  0  0  0  0  0  0  0  0  0  0  0
    0.2221   -9.8326   17.4055 C   0  0  0  0  0  0  0  0  0  0  0  0
    4.3850   -9.0730   28.6745 C   0  0  0  0  0  0  0  0  0  0  0  0
  1  7  4  0
  1 22  4  0
  2 17  4  0
  2 20  4  0
  2 28  4  0
  3  6  1  0
  3 19  1  0
  4 19  1  0
  4 26  1  0
  5 17  4  0
  5 18  4  0
  6 20  1  0
  6 26  1  0
  7 24  4  0
  8 15  4  0
  8 24  4  0
  9 14  4  0
  9 21  4  0
 10 12  4  0
 10 27  4  0
 11 12  4  0
 11 23  4  0
 13 23  4  0
 13 27  4  0
 14 20  4  0
 15 22  4  0
 16 18  4  0
 16 25  2  0
 16 28  4  0
 21 28  4  0
 24 27  1  0
M  END
$$$$

 Created by Python create_sdf_string function

 28 31  0  0  0  0  0  0  0  0999 V2000
   -1.0054  -13.0622   19.1198 C   0  0  0  0  0  0  0  0  0  0  0  0
    3.1478   -8.5360   28.5161 C   0  0  0  0  0  0  0  0  0  0  0  0
    0.5798   -7.1906   27.9330 C   0  0  0  0  0  0  0  0  0  0  0  0
    0.3978   -5.1561   26.6955 C   0  0  0  0  0  0  0  0  0  0  0  0
    2.3063  -10.0533   30.0125 C   0  0  0  0  0  0  0  0  0  0  0  0
    1.8591   -6.8254   27.4685 N   0  0  0  0  0  0  0  0  0  0  0  0
   -0.2167  -12.1055   18.5568 C   0  0  0  0  0  0  0  0  0  0  0  0
   -2.0661  -10.6994   18.1916 C   0  0  0  0  0  0  0  0  0  0  0  0
    5.2703   -7.5691   27.1123 C   0  0  0  0  0  0  0  0  0  0  0  0
    1.6204   -9.9887   17.2935 C   0  0  0  0  0  0  0  0  0  0  0  0
    1.8931   -7.9265   16.2047 C   0  0  0  0  0  0  0  0  0  0  0  0
    2.4396   -9.0801   16.7132 C   0  0  0  0  0  0  0  0  0  0  0  0
   -0.2575   -8.6234   16.8582 C   0  0  0  0  0  0  0  0  0  0  0  0
    4.0614   -7.0367   27.0106 N   0  0  0  0  0  0  0  0  0  0  0  0
   -2.9133  -11.6279   18.7578 C   0  0  0  0  0  0  0  0  0  0  0  0
    4.5688  -10.1291   29.5758 C   0  0  0  0  0  0  0  0  0  0  0  0
    2.1008   -9.0410   29.1852 N   0  0  0  0  0  0  0  0  0  0  0  0
    3.4829  -10.5697   30.2091 N   0  0  0  0  0  0  0  0  0  0  0  0
   -0.3363   -6.1172   27.5628 C   0  0  0  0  0  0  0  0  0  0  0  0
    3.0331   -7.4400   27.6362 C   0  0  0  0  0  0  0  0  0  0  0  0
    5.4553   -8.5933   27.9644 C   0  0  0  0  0  0  0  0  0  0  0  0
   -2.3870  -12.8440   19.2512 C   0  0  0  0  0  0  0  0  0  0  0  0
    0.5331   -7.6964   16.2751 C   0  0  0  0  0  0  0  0  0  0  0  0
   -0.6740  -10.8737   18.0482 C   0  0  0  0  0  0  0  0  0  0  0  0
    5.6751  -10.5870   29.7637 O   0  0  0  0  0  0  0  0  0  0  0  0
    1.7612   -5.6483   26.7172 C   0  0  0  0  0  0  0  0  0  0  0  0
    0.2221   -9.8326   17.4055 C   0  0  0  0  0  0  0  0  0  0  0  0
    4.3850   -9.0730   28.6745 C   0  0  0  0  0  0  0  0  0  0  0  0
  1  7  4  0
  1 22  4  0
  2 17  4  0
  2 20  4  0
  2 28  4  0
  3  6  1  0
  3 19  1  0
  4 19  1  0
  4 26  1  0
  5 17  4  0
  5 18  4  0
  6 20  1  0
  6 26  1  0
  7 24  4  0
  8 15  4  0
  8 24  4  0
  9 14  4  0
  9 21  4  0
 10 12  4  0
 10 27  4  0
 11 12  4  0
 11 23  4  0
 13 23  4  0
 13 27  4  0
 14 20  4  0
 15 22  4  0
 16 18  4  0
 16 25  2  0
 16 28  4  0
 21 28  4  0
 24 27  1  0
M  END
$$$$

 Created by Python create_sdf_string function

 28 31  0  0  0  0  0  0  0  0999 V2000
   -1.0054  -13.0622   19.1198 C   0  0  0  0  0  0  0  0  0  0  0  0
    3.1478   -8.5360   28.5161 C   0  0  0  0  0  0  0  0  0  0  0  0
    0.5798   -7.1906   27.9330 C   0  0  0  0  0  0  0  0  0  0  0  0
    0.3978   -5.1561   26.6955 C   0  0  0  0  0  0  0  0  0  0  0  0
    2.3063  -10.0533   30.0125 C   0  0  0  0  0  0  0  0  0  0  0  0
    1.8591   -6.8254   27.4685 N   0  0  0  0  0  0  0  0  0  0  0  0
   -0.2167  -12.1055   18.5568 C   0  0  0  0  0  0  0  0  0  0  0  0
   -2.0661  -10.6994   18.1916 C   0  0  0  0  0  0  0  0  0  0  0  0
    5.2703   -7.5691   27.1123 C   0  0  0  0  0  0  0  0  0  0  0  0
    1.6204   -9.9887   17.2935 C   0  0  0  0  0  0  0  0  0  0  0  0
    1.8931   -7.9265   16.2047 C   0  0  0  0  0  0  0  0  0  0  0  0
    2.4396   -9.0801   16.7132 C   0  0  0  0  0  0  0  0  0  0  0  0
   -0.2575   -8.6234   16.8582 C   0  0  0  0  0  0  0  0  0  0  0  0
    4.0614   -7.0367   27.0106 N   0  0  0  0  0  0  0  0  0  0  0  0
   -2.9133  -11.6279   18.7578 C   0  0  0  0  0  0  0  0  0  0  0  0
    4.5688  -10.1291   29.5758 C   0  0  0  0  0  0  0  0  0  0  0  0
    2.1008   -9.0410   29.1852 N   0  0  0  0  0  0  0  0  0  0  0  0
    3.4829  -10.5697   30.2091 N   0  0  0  0  0  0  0  0  0  0  0  0
   -0.3363   -6.1172   27.5628 C   0  0  0  0  0  0  0  0  0  0  0  0
    3.0331   -7.4400   27.6362 C   0  0  0  0  0  0  0  0  0  0  0  0
    5.4553   -8.5933   27.9644 C   0  0  0  0  0  0  0  0  0  0  0  0
   -2.3870  -12.8440   19.2512 C   0  0  0  0  0  0  0  0  0  0  0  0
    0.5331   -7.6964   16.2751 C   0  0  0  0  0  0  0  0  0  0  0  0
   -0.6740  -10.8737   18.0482 C   0  0  0  0  0  0  0  0  0  0  0  0
    5.6751  -10.5870   29.7637 O   0  0  0  0  0  0  0  0  0  0  0  0
    1.7612   -5.6483   26.7172 C   0  0  0  0  0  0  0  0  0  0  0  0
    0.2221   -9.8326   17.4055 C   0  0  0  0  0  0  0  0  0  0  0  0
    4.3850   -9.0730   28.6745 C   0  0  0  0  0  0  0  0  0  0  0  0
  1  7  4  0
  1 22  4  0
  2 17  4  0
  2 20  4  0
  2 28  4  0
  3  6  1  0
  3 19  1  0
  4 19  1  0
  4 26  1  0
  5 17  4  0
  5 18  4  0
  6 20  1  0
  6 26  1  0
  7 24  4  0
  8 15  4  0
  8 24  4  0
  9 14  4  0
  9 21  4  0
 10 12  4  0
 10 27  4  0
 11 12  4  0
 11 23  4  0
 13 23  4  0
 13 27  4  0
 14 20  4  0
 15 22  4  0
 16 18  4  0
 16 25  2  0
 16 28  4  0
 21 28  4  0
 24 27  1  0
M  END
$$$$

 Created by Python create_sdf_string function

 28 31  0  0  0  0  0  0  0  0999 V2000
   -1.0054  -13.0622   19.1198 C   0  0  0  0  0  0  0  0  0  0  0  0
    3.1478   -8.5360   28.5161 C   0  0  0  0  0  0  0  0  0  0  0  0
    0.5798   -7.1906   27.9330 C   0  0  0  0  0  0  0  0  0  0  0  0
    0.3978   -5.1561   26.6955 C   0  0  0  0  0  0  0  0  0  0  0  0
    2.3063  -10.0533   30.0125 C   0  0  0  0  0  0  0  0  0  0  0  0
    1.8591   -6.8254   27.4685 N   0  0  0  0  0  0  0  0  0  0  0  0
   -0.2167  -12.1055   18.5568 C   0  0  0  0  0  0  0  0  0  0  0  0
   -2.0661  -10.6994   18.1916 C   0  0  0  0  0  0  0  0  0  0  0  0
    5.2703   -7.5691   27.1123 C   0  0  0  0  0  0  0  0  0  0  0  0
    1.6204   -9.9887   17.2935 C   0  0  0  0  0  0  0  0  0  0  0  0
    1.8931   -7.9265   16.2047 C   0  0  0  0  0  0  0  0  0  0  0  0
    2.4396   -9.0801   16.7132 C   0  0  0  0  0  0  0  0  0  0  0  0
   -0.2575   -8.6234   16.8582 C   0  0  0  0  0  0  0  0  0  0  0  0
    4.0614   -7.0367   27.0106 N   0  0  0  0  0  0  0  0  0  0  0  0
   -2.9133  -11.6279   18.7578 C   0  0  0  0  0  0  0  0  0  0  0  0
    4.5688  -10.1291   29.5758 C   0  0  0  0  0  0  0  0  0  0  0  0
    2.1008   -9.0410   29.1852 N   0  0  0  0  0  0  0  0  0  0  0  0
    3.4829  -10.5697   30.2091 N   0  0  0  0  0  0  0  0  0  0  0  0
   -0.3363   -6.1172   27.5628 C   0  0  0  0  0  0  0  0  0  0  0  0
    3.0331   -7.4400   27.6362 C   0  0  0  0  0  0  0  0  0  0  0  0
    5.4553   -8.5933   27.9644 C   0  0  0  0  0  0  0  0  0  0  0  0
   -2.3870  -12.8440   19.2512 C   0  0  0  0  0  0  0  0  0  0  0  0
    0.5331   -7.6964   16.2751 C   0  0  0  0  0  0  0  0  0  0  0  0
   -0.6740  -10.8737   18.0482 C   0  0  0  0  0  0  0  0  0  0  0  0
    5.6751  -10.5870   29.7637 O   0  0  0  0  0  0  0  0  0  0  0  0
    1.7612   -5.6483   26.7172 C   0  0  0  0  0  0  0  0  0  0  0  0
    0.2221   -9.8326   17.4055 C   0  0  0  0  0  0  0  0  0  0  0  0
    4.3850   -9.0730   28.6745 C   0  0  0  0  0  0  0  0  0  0  0  0
  1  7  4  0
  1 22  4  0
  2 17  4  0
  2 20  4  0
  2 28  4  0
  3  6  1  0
  3 19  1  0
  4 19  1  0
  4 26  1  0
  5 17  4  0
  5 18  4  0
  6 20  1  0
  6 26  1  0
  7 24  4  0
  8 15  4  0
  8 24  4  0
  9 14  4  0
  9 21  4  0
 10 12  4  0
 10 27  4  0
 11 12  4  0
 11 23  4  0
 13 23  4  0
 13 27  4  0
 14 20  4  0
 15 22  4  0
 16 18  4  0
 16 25  2  0
 16 28  4  0
 21 28  4  0
 24 27  1  0
M  END
$$$$

 Created by Python create_sdf_string function

 28 31  0  0  0  0  0  0  0  0999 V2000
   -1.0054  -13.0622   19.1198 C   0  0  0  0  0  0  0  0  0  0  0  0
    3.1478   -8.5360   28.5161 C   0  0  0  0  0  0  0  0  0  0  0  0
    0.5798   -7.1906   27.9330 C   0  0  0  0  0  0  0  0  0  0  0  0
    0.3978   -5.1561   26.6955 C   0  0  0  0  0  0  0  0  0  0  0  0
    2.3063  -10.0533   30.0125 C   0  0  0  0  0  0  0  0  0  0  0  0
    1.8591   -6.8254   27.4685 N   0  0  0  0  0  0  0  0  0  0  0  0
   -0.2167  -12.1055   18.5568 C   0  0  0  0  0  0  0  0  0  0  0  0
   -2.0661  -10.6994   18.1916 C   0  0  0  0  0  0  0  0  0  0  0  0
    5.2703   -7.5691   27.1123 C   0  0  0  0  0  0  0  0  0  0  0  0
    1.6204   -9.9887   17.2935 C   0  0  0  0  0  0  0  0  0  0  0  0
    1.8931   -7.9265   16.2047 C   0  0  0  0  0  0  0  0  0  0  0  0
    2.4396   -9.0801   16.7132 C   0  0  0  0  0  0  0  0  0  0  0  0
   -0.2575   -8.6234   16.8582 C   0  0  0  0  0  0  0  0  0  0  0  0
    4.0614   -7.0367   27.0106 N   0  0  0  0  0  0  0  0  0  0  0  0
   -2.9133  -11.6279   18.7578 C   0  0  0  0  0  0  0  0  0  0  0  0
    4.5688  -10.1291   29.5758 C   0  0  0  0  0  0  0  0  0  0  0  0
    2.1008   -9.0410   29.1852 N   0  0  0  0  0  0  0  0  0  0  0  0
    3.4829  -10.5697   30.2091 N   0  0  0  0  0  0  0  0  0  0  0  0
   -0.3363   -6.1172   27.5628 C   0  0  0  0  0  0  0  0  0  0  0  0
    3.0331   -7.4400   27.6362 C   0  0  0  0  0  0  0  0  0  0  0  0
    5.4553   -8.5933   27.9644 C   0  0  0  0  0  0  0  0  0  0  0  0
   -2.3870  -12.8440   19.2512 C   0  0  0  0  0  0  0  0  0  0  0  0
    0.5331   -7.6964   16.2751 C   0  0  0  0  0  0  0  0  0  0  0  0
   -0.6740  -10.8737   18.0482 C   0  0  0  0  0  0  0  0  0  0  0  0
    5.6751  -10.5870   29.7637 O   0  0  0  0  0  0  0  0  0  0  0  0
    1.7612   -5.6483   26.7172 C   0  0  0  0  0  0  0  0  0  0  0  0
    0.2221   -9.8326   17.4055 C   0  0  0  0  0  0  0  0  0  0  0  0
    4.3850   -9.0730   28.6745 C   0  0  0  0  0  0  0  0  0  0  0  0
  1  7  4  0
  1 22  4  0
  2 17  4  0
  2 20  4  0
  2 28  4  0
  3  6  1  0
  3 19  1  0
  4 19  1  0
  4 26  1  0
  5 17  4  0
  5 18  4  0
  6 20  1  0
  6 26  1  0
  7 24  4  0
  8 15  4  0
  8 24  4  0
  9 14  4  0
  9 21  4  0
 10 12  4  0
 10 27  4  0
 11 12  4  0
 11 23  4  0
 13 23  4  0
 13 27  4  0
 14 20  4  0
 15 22  4  0
 16 18  4  0
 16 25  2  0
 16 28  4  0
 21 28  4  0
 24 27  1  0
M  END
$$$$

 Created by Python create_sdf_string function

 28 31  0  0  0  0  0  0  0  0999 V2000
   -1.0054  -13.0622   19.1198 C   0  0  0  0  0  0  0  0  0  0  0  0
    3.1478   -8.5360   28.5161 C   0  0  0  0  0  0  0  0  0  0  0  0
    0.5798   -7.1906   27.9330 C   0  0  0  0  0  0  0  0  0  0  0  0
    0.3978   -5.1561   26.6955 C   0  0  0  0  0  0  0  0  0  0  0  0
    2.3063  -10.0533   30.0125 C   0  0  0  0  0  0  0  0  0  0  0  0
    1.8591   -6.8254   27.4685 N   0  0  0  0  0  0  0  0  0  0  0  0
   -0.2167  -12.1055   18.5568 C   0  0  0  0  0  0  0  0  0  0  0  0
   -2.0661  -10.6994   18.1916 C   0  0  0  0  0  0  0  0  0  0  0  0
    5.2703   -7.5691   27.1123 C   0  0  0  0  0  0  0  0  0  0  0  0
    1.6204   -9.9887   17.2935 C   0  0  0  0  0  0  0  0  0  0  0  0
    1.8931   -7.9265   16.2047 C   0  0  0  0  0  0  0  0  0  0  0  0
    2.4396   -9.0801   16.7132 C   0  0  0  0  0  0  0  0  0  0  0  0
   -0.2575   -8.6234   16.8582 C   0  0  0  0  0  0  0  0  0  0  0  0
    4.0614   -7.0367   27.0106 N   0  0  0  0  0  0  0  0  0  0  0  0
   -2.9133  -11.6279   18.7578 C   0  0  0  0  0  0  0  0  0  0  0  0
    4.5688  -10.1291   29.5758 C   0  0  0  0  0  0  0  0  0  0  0  0
    2.1008   -9.0410   29.1852 N   0  0  0  0  0  0  0  0  0  0  0  0
    3.4829  -10.5697   30.2091 N   0  0  0  0  0  0  0  0  0  0  0  0
   -0.3363   -6.1172   27.5628 C   0  0  0  0  0  0  0  0  0  0  0  0
    3.0331   -7.4400   27.6362 C   0  0  0  0  0  0  0  0  0  0  0  0
    5.4553   -8.5933   27.9644 C   0  0  0  0  0  0  0  0  0  0  0  0
   -2.3870  -12.8440   19.2512 C   0  0  0  0  0  0  0  0  0  0  0  0
    0.5331   -7.6964   16.2751 C   0  0  0  0  0  0  0  0  0  0  0  0
   -0.6740  -10.8737   18.0482 C   0  0  0  0  0  0  0  0  0  0  0  0
    5.6751  -10.5870   29.7637 O   0  0  0  0  0  0  0  0  0  0  0  0
    1.7612   -5.6483   26.7172 C   0  0  0  0  0  0  0  0  0  0  0  0
    0.2221   -9.8326   17.4055 C   0  0  0  0  0  0  0  0  0  0  0  0
    4.3850   -9.0730   28.6745 C   0  0  0  0  0  0  0  0  0  0  0  0
  1  7  4  0
  1 22  4  0
  2 17  4  0
  2 20  4  0
  2 28  4  0
  3  6  1  0
  3 19  1  0
  4 19  1  0
  4 26  1  0
  5 17  4  0
  5 18  4  0
  6 20  1  0
  6 26  1  0
  7 24  4  0
  8 15  4  0
  8 24  4  0
  9 14  4  0
  9 21  4  0
 10 12  4  0
 10 27  4  0
 11 12  4  0
 11 23  4  0
 13 23  4  0
 13 27  4  0
 14 20  4  0
 15 22  4  0
 16 18  4  0
 16 25  2  0
 16 28  4  0
 21 28  4  0
 24 27  1  0
M  END
$$$$

 Created by Python create_sdf_string function

 28 31  0  0  0  0  0  0  0  0999 V2000
   -1.0054  -13.0622   19.1198 C   0  0  0  0  0  0  0  0  0  0  0  0
    3.1478   -8.5360   28.5161 C   0  0  0  0  0  0  0  0  0  0  0  0
    0.5798   -7.1906   27.9330 C   0  0  0  0  0  0  0  0  0  0  0  0
    0.3978   -5.1561   26.6955 C   0  0  0  0  0  0  0  0  0  0  0  0
    2.3063  -10.0533   30.0125 C   0  0  0  0  0  0  0  0  0  0  0  0
    1.8591   -6.8254   27.4685 N   0  0  0  0  0  0  0  0  0  0  0  0
   -0.2167  -12.1055   18.5568 C   0  0  0  0  0  0  0  0  0  0  0  0
   -2.0661  -10.6994   18.1916 C   0  0  0  0  0  0  0  0  0  0  0  0
    5.2703   -7.5691   27.1123 C   0  0  0  0  0  0  0  0  0  0  0  0
    1.6204   -9.9887   17.2935 C   0  0  0  0  0  0  0  0  0  0  0  0
    1.8931   -7.9265   16.2047 C   0  0  0  0  0  0  0  0  0  0  0  0
    2.4396   -9.0801   16.7132 C   0  0  0  0  0  0  0  0  0  0  0  0
   -0.2575   -8.6234   16.8582 C   0  0  0  0  0  0  0  0  0  0  0  0
    4.0614   -7.0367   27.0106 N   0  0  0  0  0  0  0  0  0  0  0  0
   -2.9133  -11.6279   18.7578 C   0  0  0  0  0  0  0  0  0  0  0  0
    4.5688  -10.1291   29.5758 C   0  0  0  0  0  0  0  0  0  0  0  0
    2.1008   -9.0410   29.1852 N   0  0  0  0  0  0  0  0  0  0  0  0
    3.4829  -10.5697   30.2091 N   0  0  0  0  0  0  0  0  0  0  0  0
   -0.3363   -6.1172   27.5628 C   0  0  0  0  0  0  0  0  0  0  0  0
    3.0331   -7.4400   27.6362 C   0  0  0  0  0  0  0  0  0  0  0  0
    5.4553   -8.5933   27.9644 C   0  0  0  0  0  0  0  0  0  0  0  0
   -2.3870  -12.8440   19.2512 C   0  0  0  0  0  0  0  0  0  0  0  0
    0.5331   -7.6964   16.2751 C   0  0  0  0  0  0  0  0  0  0  0  0
   -0.6740  -10.8737   18.0482 C   0  0  0  0  0  0  0  0  0  0  0  0
    5.6751  -10.5870   29.7637 O   0  0  0  0  0  0  0  0  0  0  0  0
    1.7612   -5.6483   26.7172 C   0  0  0  0  0  0  0  0  0  0  0  0
    0.2221   -9.8326   17.4055 C   0  0  0  0  0  0  0  0  0  0  0  0
    4.3850   -9.0730   28.6745 C   0  0  0  0  0  0  0  0  0  0  0  0
  1  7  4  0
  1 22  4  0
  2 17  4  0
  2 20  4  0
  2 28  4  0
  3  6  1  0
  3 19  1  0
  4 19  1  0
  4 26  1  0
  5 17  4  0
  5 18  4  0
  6 20  1  0
  6 26  1  0
  7 24  4  0
  8 15  4  0
  8 24  4  0
  9 14  4  0
  9 21  4  0
 10 12  4  0
 10 27  4  0
 11 12  4  0
 11 23  4  0
 13 23  4  0
 13 27  4  0
 14 20  4  0
 15 22  4  0
 16 18  4  0
 16 25  2  0
 16 28  4  0
 21 28  4  0
 24 27  1  0
M  END
$$$$

 Created by Python create_sdf_string function

 28 31  0  0  0  0  0  0  0  0999 V2000
   -1.0054  -13.0622   19.1198 C   0  0  0  0  0  0  0  0  0  0  0  0
    3.1478   -8.5360   28.5161 C   0  0  0  0  0  0  0  0  0  0  0  0
    0.5798   -7.1906   27.9330 C   0  0  0  0  0  0  0  0  0  0  0  0
    0.3978   -5.1561   26.6955 C   0  0  0  0  0  0  0  0  0  0  0  0
    2.3063  -10.0533   30.0125 C   0  0  0  0  0  0  0  0  0  0  0  0
    1.8591   -6.8254   27.4685 N   0  0  0  0  0  0  0  0  0  0  0  0
   -0.2167  -12.1055   18.5568 C   0  0  0  0  0  0  0  0  0  0  0  0
   -2.0661  -10.6994   18.1916 C   0  0  0  0  0  0  0  0  0  0  0  0
    5.2703   -7.5691   27.1123 C   0  0  0  0  0  0  0  0  0  0  0  0
    1.6204   -9.9887   17.2935 C   0  0  0  0  0  0  0  0  0  0  0  0
    1.8931   -7.9265   16.2047 C   0  0  0  0  0  0  0  0  0  0  0  0
    2.4396   -9.0801   16.7132 C   0  0  0  0  0  0  0  0  0  0  0  0
   -0.2575   -8.6234   16.8582 C   0  0  0  0  0  0  0  0  0  0  0  0
    4.0614   -7.0367   27.0106 N   0  0  0  0  0  0  0  0  0  0  0  0
   -2.9133  -11.6279   18.7578 C   0  0  0  0  0  0  0  0  0  0  0  0
    4.5688  -10.1291   29.5758 C   0  0  0  0  0  0  0  0  0  0  0  0
    2.1008   -9.0410   29.1852 N   0  0  0  0  0  0  0  0  0  0  0  0
    3.4829  -10.5697   30.2091 N   0  0  0  0  0  0  0  0  0  0  0  0
   -0.3363   -6.1172   27.5628 C   0  0  0  0  0  0  0  0  0  0  0  0
    3.0331   -7.4400   27.6362 C   0  0  0  0  0  0  0  0  0  0  0  0
    5.4553   -8.5933   27.9644 C   0  0  0  0  0  0  0  0  0  0  0  0
   -2.3870  -12.8440   19.2512 C   0  0  0  0  0  0  0  0  0  0  0  0
    0.5331   -7.6964   16.2751 C   0  0  0  0  0  0  0  0  0  0  0  0
   -0.6740  -10.8737   18.0482 C   0  0  0  0  0  0  0  0  0  0  0  0
    5.6751  -10.5870   29.7637 O   0  0  0  0  0  0  0  0  0  0  0  0
    1.7612   -5.6483   26.7172 C   0  0  0  0  0  0  0  0  0  0  0  0
    0.2221   -9.8326   17.4055 C   0  0  0  0  0  0  0  0  0  0  0  0
    4.3850   -9.0730   28.6745 C   0  0  0  0  0  0  0  0  0  0  0  0
  1  7  4  0
  1 22  4  0
  2 17  4  0
  2 20  4  0
  2 28  4  0
  3  6  1  0
  3 19  1  0
  4 19  1  0
  4 26  1  0
  5 17  4  0
  5 18  4  0
  6 20  1  0
  6 26  1  0
  7 24  4  0
  8 15  4  0
  8 24  4  0
  9 14  4  0
  9 21  4  0
 10 12  4  0
 10 27  4  0
 11 12  4  0
 11 23  4  0
 13 23  4  0
 13 27  4  0
 14 20  4  0
 15 22  4  0
 16 18  4  0
 16 25  2  0
 16 28  4  0
 21 28  4  0
 24 27  1  0
M  END
$$$$

 Created by Python create_sdf_string function

 28 31  0  0  0  0  0  0  0  0999 V2000
   -1.0054  -13.0622   19.1198 C   0  0  0  0  0  0  0  0  0  0  0  0
    3.1478   -8.5360   28.5161 C   0  0  0  0  0  0  0  0  0  0  0  0
    0.5798   -7.1906   27.9330 C   0  0  0  0  0  0  0  0  0  0  0  0
    0.3978   -5.1561   26.6955 C   0  0  0  0  0  0  0  0  0  0  0  0
    2.3063  -10.0533   30.0125 C   0  0  0  0  0  0  0  0  0  0  0  0
    1.8591   -6.8254   27.4685 N   0  0  0  0  0  0  0  0  0  0  0  0
   -0.2167  -12.1055   18.5568 C   0  0  0  0  0  0  0  0  0  0  0  0
   -2.0661  -10.6994   18.1916 C   0  0  0  0  0  0  0  0  0  0  0  0
    5.2703   -7.5691   27.1123 C   0  0  0  0  0  0  0  0  0  0  0  0
    1.6204   -9.9887   17.2935 C   0  0  0  0  0  0  0  0  0  0  0  0
    1.8931   -7.9265   16.2047 C   0  0  0  0  0  0  0  0  0  0  0  0
    2.4396   -9.0801   16.7132 C   0  0  0  0  0  0  0  0  0  0  0  0
   -0.2575   -8.6234   16.8582 C   0  0  0  0  0  0  0  0  0  0  0  0
    4.0614   -7.0367   27.0106 N   0  0  0  0  0  0  0  0  0  0  0  0
   -2.9133  -11.6279   18.7578 C   0  0  0  0  0  0  0  0  0  0  0  0
    4.5688  -10.1291   29.5758 C   0  0  0  0  0  0  0  0  0  0  0  0
    2.1008   -9.0410   29.1852 N   0  0  0  0  0  0  0  0  0  0  0  0
    3.4829  -10.5697   30.2091 N   0  0  0  0  0  0  0  0  0  0  0  0
   -0.3363   -6.1172   27.5628 C   0  0  0  0  0  0  0  0  0  0  0  0
    3.0331   -7.4400   27.6362 C   0  0  0  0  0  0  0  0  0  0  0  0
    5.4553   -8.5933   27.9644 C   0  0  0  0  0  0  0  0  0  0  0  0
   -2.3870  -12.8440   19.2512 C   0  0  0  0  0  0  0  0  0  0  0  0
    0.5331   -7.6964   16.2751 C   0  0  0  0  0  0  0  0  0  0  0  0
   -0.6740  -10.8737   18.0482 C   0  0  0  0  0  0  0  0  0  0  0  0
    5.6751  -10.5870   29.7637 O   0  0  0  0  0  0  0  0  0  0  0  0
    1.7612   -5.6483   26.7172 C   0  0  0  0  0  0  0  0  0  0  0  0
    0.2221   -9.8326   17.4055 C   0  0  0  0  0  0  0  0  0  0  0  0
    4.3850   -9.0730   28.6745 C   0  0  0  0  0  0  0  0  0  0  0  0
  1  7  4  0
  1 22  4  0
  2 17  4  0
  2 20  4  0
  2 28  4  0
  3  6  1  0
  3 19  1  0
  4 19  1  0
  4 26  1  0
  5 17  4  0
  5 18  4  0
  6 20  1  0
  6 26  1  0
  7 24  4  0
  8 15  4  0
  8 24  4  0
  9 14  4  0
  9 21  4  0
 10 12  4  0
 10 27  4  0
 11 12  4  0
 11 23  4  0
 13 23  4  0
 13 27  4  0
 14 20  4  0
 15 22  4  0
 16 18  4  0
 16 25  2  0
 16 28  4  0
 21 28  4  0
 24 27  1  0
M  END
$$$$

 Created by Python create_sdf_string function

 28 31  0  0  0  0  0  0  0  0999 V2000
   -1.0054  -13.0622   19.1198 C   0  0  0  0  0  0  0  0  0  0  0  0
    3.1478   -8.5360   28.5161 C   0  0  0  0  0  0  0  0  0  0  0  0
    0.5798   -7.1906   27.9330 C   0  0  0  0  0  0  0  0  0  0  0  0
    0.3978   -5.1561   26.6955 C   0  0  0  0  0  0  0  0  0  0  0  0
    2.3063  -10.0533   30.0125 C   0  0  0  0  0  0  0  0  0  0  0  0
    1.8591   -6.8254   27.4685 N   0  0  0  0  0  0  0  0  0  0  0  0
   -0.2167  -12.1055   18.5568 C   0  0  0  0  0  0  0  0  0  0  0  0
   -2.0661  -10.6994   18.1916 C   0  0  0  0  0  0  0  0  0  0  0  0
    5.2703   -7.5691   27.1123 C   0  0  0  0  0  0  0  0  0  0  0  0
    1.6204   -9.9887   17.2935 C   0  0  0  0  0  0  0  0  0  0  0  0
    1.8931   -7.9265   16.2047 C   0  0  0  0  0  0  0  0  0  0  0  0
    2.4396   -9.0801   16.7132 C   0  0  0  0  0  0  0  0  0  0  0  0
   -0.2575   -8.6234   16.8582 C   0  0  0  0  0  0  0  0  0  0  0  0
    4.0614   -7.0367   27.0106 N   0  0  0  0  0  0  0  0  0  0  0  0
   -2.9133  -11.6279   18.7578 C   0  0  0  0  0  0  0  0  0  0  0  0
    4.5688  -10.1291   29.5758 C   0  0  0  0  0  0  0  0  0  0  0  0
    2.1008   -9.0410   29.1852 N   0  0  0  0  0  0  0  0  0  0  0  0
    3.4829  -10.5697   30.2091 N   0  0  0  0  0  0  0  0  0  0  0  0
   -0.3363   -6.1172   27.5628 C   0  0  0  0  0  0  0  0  0  0  0  0
    3.0331   -7.4400   27.6362 C   0  0  0  0  0  0  0  0  0  0  0  0
    5.4553   -8.5933   27.9644 C   0  0  0  0  0  0  0  0  0  0  0  0
   -2.3870  -12.8440   19.2512 C   0  0  0  0  0  0  0  0  0  0  0  0
    0.5331   -7.6964   16.2751 C   0  0  0  0  0  0  0  0  0  0  0  0
   -0.6740  -10.8737   18.0482 C   0  0  0  0  0  0  0  0  0  0  0  0
    5.6751  -10.5870   29.7637 O   0  0  0  0  0  0  0  0  0  0  0  0
    1.7612   -5.6483   26.7172 C   0  0  0  0  0  0  0  0  0  0  0  0
    0.2221   -9.8326   17.4055 C   0  0  0  0  0  0  0  0  0  0  0  0
    4.3850   -9.0730   28.6745 C   0  0  0  0  0  0  0  0  0  0  0  0
  1  7  4  0
  1 22  4  0
  2 17  4  0
  2 20  4  0
  2 28  4  0
  3  6  1  0
  3 19  1  0
  4 19  1  0
  4 26  1  0
  5 17  4  0
  5 18  4  0
  6 20  1  0
  6 26  1  0
  7 24  4  0
  8 15  4  0
  8 24  4  0
  9 14  4  0
  9 21  4  0
 10 12  4  0
 10 27  4  0
 11 12  4  0
 11 23  4  0
 13 23  4  0
 13 27  4  0
 14 20  4  0
 15 22  4  0
 16 18  4  0
 16 25  2  0
 16 28  4  0
 21 28  4  0
 24 27  1  0
M  END
$$$$

 Created by Python create_sdf_string function

 28 31  0  0  0  0  0  0  0  0999 V2000
   -1.0054  -13.0622   19.1198 C   0  0  0  0  0  0  0  0  0  0  0  0
    3.1478   -8.5360   28.5161 C   0  0  0  0  0  0  0  0  0  0  0  0
    0.5798   -7.1906   27.9330 C   0  0  0  0  0  0  0  0  0  0  0  0
    0.3978   -5.1561   26.6955 C   0  0  0  0  0  0  0  0  0  0  0  0
    2.3063  -10.0533   30.0125 C   0  0  0  0  0  0  0  0  0  0  0  0
    1.8591   -6.8254   27.4685 N   0  0  0  0  0  0  0  0  0  0  0  0
   -0.2167  -12.1055   18.5568 C   0  0  0  0  0  0  0  0  0  0  0  0
   -2.0661  -10.6994   18.1916 C   0  0  0  0  0  0  0  0  0  0  0  0
    5.2703   -7.5691   27.1123 C   0  0  0  0  0  0  0  0  0  0  0  0
    1.6204   -9.9887   17.2935 C   0  0  0  0  0  0  0  0  0  0  0  0
    1.8931   -7.9265   16.2047 C   0  0  0  0  0  0  0  0  0  0  0  0
    2.4396   -9.0801   16.7132 C   0  0  0  0  0  0  0  0  0  0  0  0
   -0.2575   -8.6234   16.8582 C   0  0  0  0  0  0  0  0  0  0  0  0
    4.0614   -7.0367   27.0106 N   0  0  0  0  0  0  0  0  0  0  0  0
   -2.9133  -11.6279   18.7578 C   0  0  0  0  0  0  0  0  0  0  0  0
    4.5688  -10.1291   29.5758 C   0  0  0  0  0  0  0  0  0  0  0  0
    2.1008   -9.0410   29.1852 N   0  0  0  0  0  0  0  0  0  0  0  0
    3.4829  -10.5697   30.2091 N   0  0  0  0  0  0  0  0  0  0  0  0
   -0.3363   -6.1172   27.5628 C   0  0  0  0  0  0  0  0  0  0  0  0
    3.0331   -7.4400   27.6362 C   0  0  0  0  0  0  0  0  0  0  0  0
    5.4553   -8.5933   27.9644 C   0  0  0  0  0  0  0  0  0  0  0  0
   -2.3870  -12.8440   19.2512 C   0  0  0  0  0  0  0  0  0  0  0  0
    0.5331   -7.6964   16.2751 C   0  0  0  0  0  0  0  0  0  0  0  0
   -0.6740  -10.8737   18.0482 C   0  0  0  0  0  0  0  0  0  0  0  0
    5.6751  -10.5870   29.7637 O   0  0  0  0  0  0  0  0  0  0  0  0
    1.7612   -5.6483   26.7172 C   0  0  0  0  0  0  0  0  0  0  0  0
    0.2221   -9.8326   17.4055 C   0  0  0  0  0  0  0  0  0  0  0  0
    4.3850   -9.0730   28.6745 C   0  0  0  0  0  0  0  0  0  0  0  0
  1  7  4  0
  1 22  4  0
  2 17  4  0
  2 20  4  0
  2 28  4  0
  3  6  1  0
  3 19  1  0
  4 19  1  0
  4 26  1  0
  5 17  4  0
  5 18  4  0
  6 20  1  0
  6 26  1  0
  7 24  4  0
  8 15  4  0
  8 24  4  0
  9 14  4  0
  9 21  4  0
 10 12  4  0
 10 27  4  0
 11 12  4  0
 11 23  4  0
 13 23  4  0
 13 27  4  0
 14 20  4  0
 15 22  4  0
 16 18  4  0
 16 25  2  0
 16 28  4  0
 21 28  4  0
 24 27  1  0
M  END
$$$$

 Created by Python create_sdf_string function

 28 31  0  0  0  0  0  0  0  0999 V2000
   -1.0054  -13.0622   19.1198 C   0  0  0  0  0  0  0  0  0  0  0  0
    3.1478   -8.5360   28.5161 C   0  0  0  0  0  0  0  0  0  0  0  0
    0.5798   -7.1906   27.9330 C   0  0  0  0  0  0  0  0  0  0  0  0
    0.3978   -5.1561   26.6955 C   0  0  0  0  0  0  0  0  0  0  0  0
    2.3063  -10.0533   30.0125 C   0  0  0  0  0  0  0  0  0  0  0  0
    1.8591   -6.8254   27.4685 N   0  0  0  0  0  0  0  0  0  0  0  0
   -0.2167  -12.1055   18.5568 C   0  0  0  0  0  0  0  0  0  0  0  0
   -2.0661  -10.6994   18.1916 C   0  0  0  0  0  0  0  0  0  0  0  0
    5.2703   -7.5691   27.1123 C   0  0  0  0  0  0  0  0  0  0  0  0
    1.6204   -9.9887   17.2935 C   0  0  0  0  0  0  0  0  0  0  0  0
    1.8931   -7.9265   16.2047 C   0  0  0  0  0  0  0  0  0  0  0  0
    2.4396   -9.0801   16.7132 C   0  0  0  0  0  0  0  0  0  0  0  0
   -0.2575   -8.6234   16.8582 C   0  0  0  0  0  0  0  0  0  0  0  0
    4.0614   -7.0367   27.0106 N   0  0  0  0  0  0  0  0  0  0  0  0
   -2.9133  -11.6279   18.7578 C   0  0  0  0  0  0  0  0  0  0  0  0
    4.5688  -10.1291   29.5758 C   0  0  0  0  0  0  0  0  0  0  0  0
    2.1008   -9.0410   29.1852 N   0  0  0  0  0  0  0  0  0  0  0  0
    3.4829  -10.5697   30.2091 N   0  0  0  0  0  0  0  0  0  0  0  0
   -0.3363   -6.1172   27.5628 C   0  0  0  0  0  0  0  0  0  0  0  0
    3.0331   -7.4400   27.6362 C   0  0  0  0  0  0  0  0  0  0  0  0
    5.4553   -8.5933   27.9644 C   0  0  0  0  0  0  0  0  0  0  0  0
   -2.3870  -12.8440   19.2512 C   0  0  0  0  0  0  0  0  0  0  0  0
    0.5331   -7.6964   16.2751 C   0  0  0  0  0  0  0  0  0  0  0  0
   -0.6740  -10.8737   18.0482 C   0  0  0  0  0  0  0  0  0  0  0  0
    5.6751  -10.5870   29.7637 O   0  0  0  0  0  0  0  0  0  0  0  0
    1.7612   -5.6483   26.7172 C   0  0  0  0  0  0  0  0  0  0  0  0
    0.2221   -9.8326   17.4055 C   0  0  0  0  0  0  0  0  0  0  0  0
    4.3850   -9.0730   28.6745 C   0  0  0  0  0  0  0  0  0  0  0  0
  1  7  4  0
  1 22  4  0
  2 17  4  0
  2 20  4  0
  2 28  4  0
  3  6  1  0
  3 19  1  0
  4 19  1  0
  4 26  1  0
  5 17  4  0
  5 18  4  0
  6 20  1  0
  6 26  1  0
  7 24  4  0
  8 15  4  0
  8 24  4  0
  9 14  4  0
  9 21  4  0
 10 12  4  0
 10 27  4  0
 11 12  4  0
 11 23  4  0
 13 23  4  0
 13 27  4  0
 14 20  4  0
 15 22  4  0
 16 18  4  0
 16 25  2  0
 16 28  4  0
 21 28  4  0
 24 27  1  0
M  END
$$$$

 Created by Python create_sdf_string function

 28 31  0  0  0  0  0  0  0  0999 V2000
   -1.0054  -13.0622   19.1198 C   0  0  0  0  0  0  0  0  0  0  0  0
    3.1478   -8.5360   28.5161 C   0  0  0  0  0  0  0  0  0  0  0  0
    0.5798   -7.1906   27.9330 C   0  0  0  0  0  0  0  0  0  0  0  0
    0.3978   -5.1561   26.6955 C   0  0  0  0  0  0  0  0  0  0  0  0
    2.3063  -10.0533   30.0125 C   0  0  0  0  0  0  0  0  0  0  0  0
    1.8591   -6.8254   27.4685 N   0  0  0  0  0  0  0  0  0  0  0  0
   -0.2167  -12.1055   18.5568 C   0  0  0  0  0  0  0  0  0  0  0  0
   -2.0661  -10.6994   18.1916 C   0  0  0  0  0  0  0  0  0  0  0  0
    5.2703   -7.5691   27.1123 C   0  0  0  0  0  0  0  0  0  0  0  0
    1.6204   -9.9887   17.2935 C   0  0  0  0  0  0  0  0  0  0  0  0
    1.8931   -7.9265   16.2047 C   0  0  0  0  0  0  0  0  0  0  0  0
    2.4396   -9.0801   16.7132 C   0  0  0  0  0  0  0  0  0  0  0  0
   -0.2575   -8.6234   16.8582 C   0  0  0  0  0  0  0  0  0  0  0  0
    4.0614   -7.0367   27.0106 N   0  0  0  0  0  0  0  0  0  0  0  0
   -2.9133  -11.6279   18.7578 C   0  0  0  0  0  0  0  0  0  0  0  0
    4.5688  -10.1291   29.5758 C   0  0  0  0  0  0  0  0  0  0  0  0
    2.1008   -9.0410   29.1852 N   0  0  0  0  0  0  0  0  0  0  0  0
    3.4829  -10.5697   30.2091 N   0  0  0  0  0  0  0  0  0  0  0  0
   -0.3363   -6.1172   27.5628 C   0  0  0  0  0  0  0  0  0  0  0  0
    3.0331   -7.4400   27.6362 C   0  0  0  0  0  0  0  0  0  0  0  0
    5.4553   -8.5933   27.9644 C   0  0  0  0  0  0  0  0  0  0  0  0
   -2.3870  -12.8440   19.2512 C   0  0  0  0  0  0  0  0  0  0  0  0
    0.5331   -7.6964   16.2751 C   0  0  0  0  0  0  0  0  0  0  0  0
   -0.6740  -10.8737   18.0482 C   0  0  0  0  0  0  0  0  0  0  0  0
    5.6751  -10.5870   29.7637 O   0  0  0  0  0  0  0  0  0  0  0  0
    1.7612   -5.6483   26.7172 C   0  0  0  0  0  0  0  0  0  0  0  0
    0.2221   -9.8326   17.4055 C   0  0  0  0  0  0  0  0  0  0  0  0
    4.3850   -9.0730   28.6745 C   0  0  0  0  0  0  0  0  0  0  0  0
  1  7  4  0
  1 22  4  0
  2 17  4  0
  2 20  4  0
  2 28  4  0
  3  6  1  0
  3 19  1  0
  4 19  1  0
  4 26  1  0
  5 17  4  0
  5 18  4  0
  6 20  1  0
  6 26  1  0
  7 24  4  0
  8 15  4  0
  8 24  4  0
  9 14  4  0
  9 21  4  0
 10 12  4  0
 10 27  4  0
 11 12  4  0
 11 23  4  0
 13 23  4  0
 13 27  4  0
 14 20  4  0
 15 22  4  0
 16 18  4  0
 16 25  2  0
 16 28  4  0
 21 28  4  0
 24 27  1  0
M  END
$$$$

 Created by Python create_sdf_string function

 28 31  0  0  0  0  0  0  0  0999 V2000
   -1.0054  -13.0622   19.1198 C   0  0  0  0  0  0  0  0  0  0  0  0
    3.1478   -8.5360   28.5161 C   0  0  0  0  0  0  0  0  0  0  0  0
    0.5798   -7.1906   27.9330 C   0  0  0  0  0  0  0  0  0  0  0  0
    0.3978   -5.1561   26.6955 C   0  0  0  0  0  0  0  0  0  0  0  0
    2.3063  -10.0533   30.0125 C   0  0  0  0  0  0  0  0  0  0  0  0
    1.8591   -6.8254   27.4685 N   0  0  0  0  0  0  0  0  0  0  0  0
   -0.2167  -12.1055   18.5568 C   0  0  0  0  0  0  0  0  0  0  0  0
   -2.0661  -10.6994   18.1916 C   0  0  0  0  0  0  0  0  0  0  0  0
    5.2703   -7.5691   27.1123 C   0  0  0  0  0  0  0  0  0  0  0  0
    1.6204   -9.9887   17.2935 C   0  0  0  0  0  0  0  0  0  0  0  0
    1.8931   -7.9265   16.2047 C   0  0  0  0  0  0  0  0  0  0  0  0
    2.4396   -9.0801   16.7132 C   0  0  0  0  0  0  0  0  0  0  0  0
   -0.2575   -8.6234   16.8582 C   0  0  0  0  0  0  0  0  0  0  0  0
    4.0614   -7.0367   27.0106 N   0  0  0  0  0  0  0  0  0  0  0  0
   -2.9133  -11.6279   18.7578 C   0  0  0  0  0  0  0  0  0  0  0  0
    4.5688  -10.1291   29.5758 C   0  0  0  0  0  0  0  0  0  0  0  0
    2.1008   -9.0410   29.1852 N   0  0  0  0  0  0  0  0  0  0  0  0
    3.4829  -10.5697   30.2091 N   0  0  0  0  0  0  0  0  0  0  0  0
   -0.3363   -6.1172   27.5628 C   0  0  0  0  0  0  0  0  0  0  0  0
    3.0331   -7.4400   27.6362 C   0  0  0  0  0  0  0  0  0  0  0  0
    5.4553   -8.5933   27.9644 C   0  0  0  0  0  0  0  0  0  0  0  0
   -2.3870  -12.8440   19.2512 C   0  0  0  0  0  0  0  0  0  0  0  0
    0.5331   -7.6964   16.2751 C   0  0  0  0  0  0  0  0  0  0  0  0
   -0.6740  -10.8737   18.0482 C   0  0  0  0  0  0  0  0  0  0  0  0
    5.6751  -10.5870   29.7637 O   0  0  0  0  0  0  0  0  0  0  0  0
    1.7612   -5.6483   26.7172 C   0  0  0  0  0  0  0  0  0  0  0  0
    0.2221   -9.8326   17.4055 C   0  0  0  0  0  0  0  0  0  0  0  0
    4.3850   -9.0730   28.6745 C   0  0  0  0  0  0  0  0  0  0  0  0
  1  7  4  0
  1 22  4  0
  2 17  4  0
  2 20  4  0
  2 28  4  0
  3  6  1  0
  3 19  1  0
  4 19  1  0
  4 26  1  0
  5 17  4  0
  5 18  4  0
  6 20  1  0
  6 26  1  0
  7 24  4  0
  8 15  4  0
  8 24  4  0
  9 14  4  0
  9 21  4  0
 10 12  4  0
 10 27  4  0
 11 12  4  0
 11 23  4  0
 13 23  4  0
 13 27  4  0
 14 20  4  0
 15 22  4  0
 16 18  4  0
 16 25  2  0
 16 28  4  0
 21 28  4  0
 24 27  1  0
M  END
$$$$

 Created by Python create_sdf_string function

 28 31  0  0  0  0  0  0  0  0999 V2000
   -1.0054  -13.0622   19.1198 C   0  0  0  0  0  0  0  0  0  0  0  0
    3.1478   -8.5360   28.5161 C   0  0  0  0  0  0  0  0  0  0  0  0
    0.5798   -7.1906   27.9330 C   0  0  0  0  0  0  0  0  0  0  0  0
    0.3978   -5.1561   26.6955 C   0  0  0  0  0  0  0  0  0  0  0  0
    2.3063  -10.0533   30.0125 C   0  0  0  0  0  0  0  0  0  0  0  0
    1.8591   -6.8254   27.4685 N   0  0  0  0  0  0  0  0  0  0  0  0
   -0.2167  -12.1055   18.5568 C   0  0  0  0  0  0  0  0  0  0  0  0
   -2.0661  -10.6994   18.1916 C   0  0  0  0  0  0  0  0  0  0  0  0
    5.2703   -7.5691   27.1123 C   0  0  0  0  0  0  0  0  0  0  0  0
    1.6204   -9.9887   17.2935 C   0  0  0  0  0  0  0  0  0  0  0  0
    1.8931   -7.9265   16.2047 C   0  0  0  0  0  0  0  0  0  0  0  0
    2.4396   -9.0801   16.7132 C   0  0  0  0  0  0  0  0  0  0  0  0
   -0.2575   -8.6234   16.8582 C   0  0  0  0  0  0  0  0  0  0  0  0
    4.0614   -7.0367   27.0106 N   0  0  0  0  0  0  0  0  0  0  0  0
   -2.9133  -11.6279   18.7578 C   0  0  0  0  0  0  0  0  0  0  0  0
    4.5688  -10.1291   29.5758 C   0  0  0  0  0  0  0  0  0  0  0  0
    2.1008   -9.0410   29.1852 N   0  0  0  0  0  0  0  0  0  0  0  0
    3.4829  -10.5697   30.2091 N   0  0  0  0  0  0  0  0  0  0  0  0
   -0.3363   -6.1172   27.5628 C   0  0  0  0  0  0  0  0  0  0  0  0
    3.0331   -7.4400   27.6362 C   0  0  0  0  0  0  0  0  0  0  0  0
    5.4553   -8.5933   27.9644 C   0  0  0  0  0  0  0  0  0  0  0  0
   -2.3870  -12.8440   19.2512 C   0  0  0  0  0  0  0  0  0  0  0  0
    0.5331   -7.6964   16.2751 C   0  0  0  0  0  0  0  0  0  0  0  0
   -0.6740  -10.8737   18.0482 C   0  0  0  0  0  0  0  0  0  0  0  0
    5.6751  -10.5870   29.7637 O   0  0  0  0  0  0  0  0  0  0  0  0
    1.7612   -5.6483   26.7172 C   0  0  0  0  0  0  0  0  0  0  0  0
    0.2221   -9.8326   17.4055 C   0  0  0  0  0  0  0  0  0  0  0  0
    4.3850   -9.0730   28.6745 C   0  0  0  0  0  0  0  0  0  0  0  0
  1  7  4  0
  1 22  4  0
  2 17  4  0
  2 20  4  0
  2 28  4  0
  3  6  1  0
  3 19  1  0
  4 19  1  0
  4 26  1  0
  5 17  4  0
  5 18  4  0
  6 20  1  0
  6 26  1  0
  7 24  4  0
  8 15  4  0
  8 24  4  0
  9 14  4  0
  9 21  4  0
 10 12  4  0
 10 27  4  0
 11 12  4  0
 11 23  4  0
 13 23  4  0
 13 27  4  0
 14 20  4  0
 15 22  4  0
 16 18  4  0
 16 25  2  0
 16 28  4  0
 21 28  4  0
 24 27  1  0
M  END
$$$$

 Created by Python create_sdf_string function

 28 31  0  0  0  0  0  0  0  0999 V2000
   -1.0054  -13.0622   19.1198 C   0  0  0  0  0  0  0  0  0  0  0  0
    3.1478   -8.5360   28.5161 C   0  0  0  0  0  0  0  0  0  0  0  0
    0.5798   -7.1906   27.9330 C   0  0  0  0  0  0  0  0  0  0  0  0
    0.3978   -5.1561   26.6955 C   0  0  0  0  0  0  0  0  0  0  0  0
    2.3063  -10.0533   30.0125 C   0  0  0  0  0  0  0  0  0  0  0  0
    1.8591   -6.8254   27.4685 N   0  0  0  0  0  0  0  0  0  0  0  0
   -0.2167  -12.1055   18.5568 C   0  0  0  0  0  0  0  0  0  0  0  0
   -2.0661  -10.6994   18.1916 C   0  0  0  0  0  0  0  0  0  0  0  0
    5.2703   -7.5691   27.1123 C   0  0  0  0  0  0  0  0  0  0  0  0
    1.6204   -9.9887   17.2935 C   0  0  0  0  0  0  0  0  0  0  0  0
    1.8931   -7.9265   16.2047 C   0  0  0  0  0  0  0  0  0  0  0  0
    2.4396   -9.0801   16.7132 C   0  0  0  0  0  0  0  0  0  0  0  0
   -0.2575   -8.6234   16.8582 C   0  0  0  0  0  0  0  0  0  0  0  0
    4.0614   -7.0367   27.0106 N   0  0  0  0  0  0  0  0  0  0  0  0
   -2.9133  -11.6279   18.7578 C   0  0  0  0  0  0  0  0  0  0  0  0
    4.5688  -10.1291   29.5758 C   0  0  0  0  0  0  0  0  0  0  0  0
    2.1008   -9.0410   29.1852 N   0  0  0  0  0  0  0  0  0  0  0  0
    3.4829  -10.5697   30.2091 N   0  0  0  0  0  0  0  0  0  0  0  0
   -0.3363   -6.1172   27.5628 C   0  0  0  0  0  0  0  0  0  0  0  0
    3.0331   -7.4400   27.6362 C   0  0  0  0  0  0  0  0  0  0  0  0
    5.4553   -8.5933   27.9644 C   0  0  0  0  0  0  0  0  0  0  0  0
   -2.3870  -12.8440   19.2512 C   0  0  0  0  0  0  0  0  0  0  0  0
    0.5331   -7.6964   16.2751 C   0  0  0  0  0  0  0  0  0  0  0  0
   -0.6740  -10.8737   18.0482 C   0  0  0  0  0  0  0  0  0  0  0  0
    5.6751  -10.5870   29.7637 O   0  0  0  0  0  0  0  0  0  0  0  0
    1.7612   -5.6483   26.7172 C   0  0  0  0  0  0  0  0  0  0  0  0
    0.2221   -9.8326   17.4055 C   0  0  0  0  0  0  0  0  0  0  0  0
    4.3850   -9.0730   28.6745 C   0  0  0  0  0  0  0  0  0  0  0  0
  1  7  4  0
  1 22  4  0
  2 17  4  0
  2 20  4  0
  2 28  4  0
  3  6  1  0
  3 19  1  0
  4 19  1  0
  4 26  1  0
  5 17  4  0
  5 18  4  0
  6 20  1  0
  6 26  1  0
  7 24  4  0
  8 15  4  0
  8 24  4  0
  9 14  4  0
  9 21  4  0
 10 12  4  0
 10 27  4  0
 11 12  4  0
 11 23  4  0
 13 23  4  0
 13 27  4  0
 14 20  4  0
 15 22  4  0
 16 18  4  0
 16 25  2  0
 16 28  4  0
 21 28  4  0
 24 27  1  0
M  END
$$$$

 Created by Python create_sdf_string function

 28 31  0  0  0  0  0  0  0  0999 V2000
   -1.0054  -13.0622   19.1198 C   0  0  0  0  0  0  0  0  0  0  0  0
    3.1478   -8.5360   28.5161 C   0  0  0  0  0  0  0  0  0  0  0  0
    0.5798   -7.1906   27.9330 C   0  0  0  0  0  0  0  0  0  0  0  0
    0.3978   -5.1561   26.6955 C   0  0  0  0  0  0  0  0  0  0  0  0
    2.3063  -10.0533   30.0125 C   0  0  0  0  0  0  0  0  0  0  0  0
    1.8591   -6.8254   27.4685 N   0  0  0  0  0  0  0  0  0  0  0  0
   -0.2167  -12.1055   18.5568 C   0  0  0  0  0  0  0  0  0  0  0  0
   -2.0661  -10.6994   18.1916 C   0  0  0  0  0  0  0  0  0  0  0  0
    5.2703   -7.5691   27.1123 C   0  0  0  0  0  0  0  0  0  0  0  0
    1.6204   -9.9887   17.2935 C   0  0  0  0  0  0  0  0  0  0  0  0
    1.8931   -7.9265   16.2047 C   0  0  0  0  0  0  0  0  0  0  0  0
    2.4396   -9.0801   16.7132 C   0  0  0  0  0  0  0  0  0  0  0  0
   -0.2575   -8.6234   16.8582 C   0  0  0  0  0  0  0  0  0  0  0  0
    4.0614   -7.0367   27.0106 N   0  0  0  0  0  0  0  0  0  0  0  0
   -2.9133  -11.6279   18.7578 C   0  0  0  0  0  0  0  0  0  0  0  0
    4.5688  -10.1291   29.5758 C   0  0  0  0  0  0  0  0  0  0  0  0
    2.1008   -9.0410   29.1852 N   0  0  0  0  0  0  0  0  0  0  0  0
    3.4829  -10.5697   30.2091 N   0  0  0  0  0  0  0  0  0  0  0  0
   -0.3363   -6.1172   27.5628 C   0  0  0  0  0  0  0  0  0  0  0  0
    3.0331   -7.4400   27.6362 C   0  0  0  0  0  0  0  0  0  0  0  0
    5.4553   -8.5933   27.9644 C   0  0  0  0  0  0  0  0  0  0  0  0
   -2.3870  -12.8440   19.2512 C   0  0  0  0  0  0  0  0  0  0  0  0
    0.5331   -7.6964   16.2751 C   0  0  0  0  0  0  0  0  0  0  0  0
   -0.6740  -10.8737   18.0482 C   0  0  0  0  0  0  0  0  0  0  0  0
    5.6751  -10.5870   29.7637 O   0  0  0  0  0  0  0  0  0  0  0  0
    1.7612   -5.6483   26.7172 C   0  0  0  0  0  0  0  0  0  0  0  0
    0.2221   -9.8326   17.4055 C   0  0  0  0  0  0  0  0  0  0  0  0
    4.3850   -9.0730   28.6745 C   0  0  0  0  0  0  0  0  0  0  0  0
  1  7  4  0
  1 22  4  0
  2 17  4  0
  2 20  4  0
  2 28  4  0
  3  6  1  0
  3 19  1  0
  4 19  1  0
  4 26  1  0
  5 17  4  0
  5 18  4  0
  6 20  1  0
  6 26  1  0
  7 24  4  0
  8 15  4  0
  8 24  4  0
  9 14  4  0
  9 21  4  0
 10 12  4  0
 10 27  4  0
 11 12  4  0
 11 23  4  0
 13 23  4  0
 13 27  4  0
 14 20  4  0
 15 22  4  0
 16 18  4  0
 16 25  2  0
 16 28  4  0
 21 28  4  0
 24 27  1  0
M  END
$$$$

 Created by Python create_sdf_string function

 28 31  0  0  0  0  0  0  0  0999 V2000
   -1.0054  -13.0622   19.1198 C   0  0  0  0  0  0  0  0  0  0  0  0
    3.1478   -8.5360   28.5161 C   0  0  0  0  0  0  0  0  0  0  0  0
    0.5798   -7.1906   27.9330 C   0  0  0  0  0  0  0  0  0  0  0  0
    0.3978   -5.1561   26.6955 C   0  0  0  0  0  0  0  0  0  0  0  0
    2.3063  -10.0533   30.0125 C   0  0  0  0  0  0  0  0  0  0  0  0
    1.8591   -6.8254   27.4685 N   0  0  0  0  0  0  0  0  0  0  0  0
   -0.2167  -12.1055   18.5568 C   0  0  0  0  0  0  0  0  0  0  0  0
   -2.0661  -10.6994   18.1916 C   0  0  0  0  0  0  0  0  0  0  0  0
    5.2703   -7.5691   27.1123 C   0  0  0  0  0  0  0  0  0  0  0  0
    1.6204   -9.9887   17.2935 C   0  0  0  0  0  0  0  0  0  0  0  0
    1.8931   -7.9265   16.2047 C   0  0  0  0  0  0  0  0  0  0  0  0
    2.4396   -9.0801   16.7132 C   0  0  0  0  0  0  0  0  0  0  0  0
   -0.2575   -8.6234   16.8582 C   0  0  0  0  0  0  0  0  0  0  0  0
    4.0614   -7.0367   27.0106 N   0  0  0  0  0  0  0  0  0  0  0  0
   -2.9133  -11.6279   18.7578 C   0  0  0  0  0  0  0  0  0  0  0  0
    4.5688  -10.1291   29.5758 C   0  0  0  0  0  0  0  0  0  0  0  0
    2.1008   -9.0410   29.1852 N   0  0  0  0  0  0  0  0  0  0  0  0
    3.4829  -10.5697   30.2091 N   0  0  0  0  0  0  0  0  0  0  0  0
   -0.3363   -6.1172   27.5628 C   0  0  0  0  0  0  0  0  0  0  0  0
    3.0331   -7.4400   27.6362 C   0  0  0  0  0  0  0  0  0  0  0  0
    5.4553   -8.5933   27.9644 C   0  0  0  0  0  0  0  0  0  0  0  0
   -2.3870  -12.8440   19.2512 C   0  0  0  0  0  0  0  0  0  0  0  0
    0.5331   -7.6964   16.2751 C   0  0  0  0  0  0  0  0  0  0  0  0
   -0.6740  -10.8737   18.0482 C   0  0  0  0  0  0  0  0  0  0  0  0
    5.6751  -10.5870   29.7637 O   0  0  0  0  0  0  0  0  0  0  0  0
    1.7612   -5.6483   26.7172 C   0  0  0  0  0  0  0  0  0  0  0  0
    0.2221   -9.8326   17.4055 C   0  0  0  0  0  0  0  0  0  0  0  0
    4.3850   -9.0730   28.6745 C   0  0  0  0  0  0  0  0  0  0  0  0
  1  7  4  0
  1 22  4  0
  2 17  4  0
  2 20  4  0
  2 28  4  0
  3  6  1  0
  3 19  1  0
  4 19  1  0
  4 26  1  0
  5 17  4  0
  5 18  4  0
  6 20  1  0
  6 26  1  0
  7 24  4  0
  8 15  4  0
  8 24  4  0
  9 14  4  0
  9 21  4  0
 10 12  4  0
 10 27  4  0
 11 12  4  0
 11 23  4  0
 13 23  4  0
 13 27  4  0
 14 20  4  0
 15 22  4  0
 16 18  4  0
 16 25  2  0
 16 28  4  0
 21 28  4  0
 24 27  1  0
M  END
$$$$

 Created by Python create_sdf_string function

 28 31  0  0  0  0  0  0  0  0999 V2000
   -1.0054  -13.0622   19.1198 C   0  0  0  0  0  0  0  0  0  0  0  0
    3.1478   -8.5360   28.5161 C   0  0  0  0  0  0  0  0  0  0  0  0
    0.5798   -7.1906   27.9330 C   0  0  0  0  0  0  0  0  0  0  0  0
    0.3978   -5.1561   26.6955 C   0  0  0  0  0  0  0  0  0  0  0  0
    2.3063  -10.0533   30.0125 C   0  0  0  0  0  0  0  0  0  0  0  0
    1.8591   -6.8254   27.4685 N   0  0  0  0  0  0  0  0  0  0  0  0
   -0.2167  -12.1055   18.5568 C   0  0  0  0  0  0  0  0  0  0  0  0
   -2.0661  -10.6994   18.1916 C   0  0  0  0  0  0  0  0  0  0  0  0
    5.2703   -7.5691   27.1123 C   0  0  0  0  0  0  0  0  0  0  0  0
    1.6204   -9.9887   17.2935 C   0  0  0  0  0  0  0  0  0  0  0  0
    1.8931   -7.9265   16.2047 C   0  0  0  0  0  0  0  0  0  0  0  0
    2.4396   -9.0801   16.7132 C   0  0  0  0  0  0  0  0  0  0  0  0
   -0.2575   -8.6234   16.8582 C   0  0  0  0  0  0  0  0  0  0  0  0
    4.0614   -7.0367   27.0106 N   0  0  0  0  0  0  0  0  0  0  0  0
   -2.9133  -11.6279   18.7578 C   0  0  0  0  0  0  0  0  0  0  0  0
    4.5688  -10.1291   29.5758 C   0  0  0  0  0  0  0  0  0  0  0  0
    2.1008   -9.0410   29.1852 N   0  0  0  0  0  0  0  0  0  0  0  0
    3.4829  -10.5697   30.2091 N   0  0  0  0  0  0  0  0  0  0  0  0
   -0.3363   -6.1172   27.5628 C   0  0  0  0  0  0  0  0  0  0  0  0
    3.0331   -7.4400   27.6362 C   0  0  0  0  0  0  0  0  0  0  0  0
    5.4553   -8.5933   27.9644 C   0  0  0  0  0  0  0  0  0  0  0  0
   -2.3870  -12.8440   19.2512 C   0  0  0  0  0  0  0  0  0  0  0  0
    0.5331   -7.6964   16.2751 C   0  0  0  0  0  0  0  0  0  0  0  0
   -0.6740  -10.8737   18.0482 C   0  0  0  0  0  0  0  0  0  0  0  0
    5.6751  -10.5870   29.7637 O   0  0  0  0  0  0  0  0  0  0  0  0
    1.7612   -5.6483   26.7172 C   0  0  0  0  0  0  0  0  0  0  0  0
    0.2221   -9.8326   17.4055 C   0  0  0  0  0  0  0  0  0  0  0  0
    4.3850   -9.0730   28.6745 C   0  0  0  0  0  0  0  0  0  0  0  0
  1  7  4  0
  1 22  4  0
  2 17  4  0
  2 20  4  0
  2 28  4  0
  3  6  1  0
  3 19  1  0
  4 19  1  0
  4 26  1  0
  5 17  4  0
  5 18  4  0
  6 20  1  0
  6 26  1  0
  7 24  4  0
  8 15  4  0
  8 24  4  0
  9 14  4  0
  9 21  4  0
 10 12  4  0
 10 27  4  0
 11 12  4  0
 11 23  4  0
 13 23  4  0
 13 27  4  0
 14 20  4  0
 15 22  4  0
 16 18  4  0
 16 25  2  0
 16 28  4  0
 21 28  4  0
 24 27  1  0
M  END
$$$$

 Created by Python create_sdf_string function

 28 31  0  0  0  0  0  0  0  0999 V2000
   -1.0054  -13.0622   19.1198 C   0  0  0  0  0  0  0  0  0  0  0  0
    3.1478   -8.5360   28.5161 C   0  0  0  0  0  0  0  0  0  0  0  0
    0.5798   -7.1906   27.9330 C   0  0  0  0  0  0  0  0  0  0  0  0
    0.3978   -5.1561   26.6955 C   0  0  0  0  0  0  0  0  0  0  0  0
    2.3063  -10.0533   30.0125 C   0  0  0  0  0  0  0  0  0  0  0  0
    1.8591   -6.8254   27.4685 N   0  0  0  0  0  0  0  0  0  0  0  0
   -0.2167  -12.1055   18.5568 C   0  0  0  0  0  0  0  0  0  0  0  0
   -2.0661  -10.6994   18.1916 C   0  0  0  0  0  0  0  0  0  0  0  0
    5.2703   -7.5691   27.1123 C   0  0  0  0  0  0  0  0  0  0  0  0
    1.6204   -9.9887   17.2935 C   0  0  0  0  0  0  0  0  0  0  0  0
    1.8931   -7.9265   16.2047 C   0  0  0  0  0  0  0  0  0  0  0  0
    2.4396   -9.0801   16.7132 C   0  0  0  0  0  0  0  0  0  0  0  0
   -0.2575   -8.6234   16.8582 C   0  0  0  0  0  0  0  0  0  0  0  0
    4.0614   -7.0367   27.0106 N   0  0  0  0  0  0  0  0  0  0  0  0
   -2.9133  -11.6279   18.7578 C   0  0  0  0  0  0  0  0  0  0  0  0
    4.5688  -10.1291   29.5758 C   0  0  0  0  0  0  0  0  0  0  0  0
    2.1008   -9.0410   29.1852 N   0  0  0  0  0  0  0  0  0  0  0  0
    3.4829  -10.5697   30.2091 N   0  0  0  0  0  0  0  0  0  0  0  0
   -0.3363   -6.1172   27.5628 C   0  0  0  0  0  0  0  0  0  0  0  0
    3.0331   -7.4400   27.6362 C   0  0  0  0  0  0  0  0  0  0  0  0
    5.4553   -8.5933   27.9644 C   0  0  0  0  0  0  0  0  0  0  0  0
   -2.3870  -12.8440   19.2512 C   0  0  0  0  0  0  0  0  0  0  0  0
    0.5331   -7.6964   16.2751 C   0  0  0  0  0  0  0  0  0  0  0  0
   -0.6740  -10.8737   18.0482 C   0  0  0  0  0  0  0  0  0  0  0  0
    5.6751  -10.5870   29.7637 O   0  0  0  0  0  0  0  0  0  0  0  0
    1.7612   -5.6483   26.7172 C   0  0  0  0  0  0  0  0  0  0  0  0
    0.2221   -9.8326   17.4055 C   0  0  0  0  0  0  0  0  0  0  0  0
    4.3850   -9.0730   28.6745 C   0  0  0  0  0  0  0  0  0  0  0  0
  1  7  4  0
  1 22  4  0
  2 17  4  0
  2 20  4  0
  2 28  4  0
  3  6  1  0
  3 19  1  0
  4 19  1  0
  4 26  1  0
  5 17  4  0
  5 18  4  0
  6 20  1  0
  6 26  1  0
  7 24  4  0
  8 15  4  0
  8 24  4  0
  9 14  4  0
  9 21  4  0
 10 12  4  0
 10 27  4  0
 11 12  4  0
 11 23  4  0
 13 23  4  0
 13 27  4  0
 14 20  4  0
 15 22  4  0
 16 18  4  0
 16 25  2  0
 16 28  4  0
 21 28  4  0
 24 27  1  0
M  END
$$$$

 Created by Python create_sdf_string function

 28 31  0  0  0  0  0  0  0  0999 V2000
   -1.0054  -13.0622   19.1198 C   0  0  0  0  0  0  0  0  0  0  0  0
    3.1478   -8.5360   28.5161 C   0  0  0  0  0  0  0  0  0  0  0  0
    0.5798   -7.1906   27.9330 C   0  0  0  0  0  0  0  0  0  0  0  0
    0.3978   -5.1561   26.6955 C   0  0  0  0  0  0  0  0  0  0  0  0
    2.3063  -10.0533   30.0125 C   0  0  0  0  0  0  0  0  0  0  0  0
    1.8591   -6.8254   27.4685 N   0  0  0  0  0  0  0  0  0  0  0  0
   -0.2167  -12.1055   18.5568 C   0  0  0  0  0  0  0  0  0  0  0  0
   -2.0661  -10.6994   18.1916 C   0  0  0  0  0  0  0  0  0  0  0  0
    5.2703   -7.5691   27.1123 C   0  0  0  0  0  0  0  0  0  0  0  0
    1.6204   -9.9887   17.2935 C   0  0  0  0  0  0  0  0  0  0  0  0
    1.8931   -7.9265   16.2047 C   0  0  0  0  0  0  0  0  0  0  0  0
    2.4396   -9.0801   16.7132 C   0  0  0  0  0  0  0  0  0  0  0  0
   -0.2575   -8.6234   16.8582 C   0  0  0  0  0  0  0  0  0  0  0  0
    4.0614   -7.0367   27.0106 N   0  0  0  0  0  0  0  0  0  0  0  0
   -2.9133  -11.6279   18.7578 C   0  0  0  0  0  0  0  0  0  0  0  0
    4.5688  -10.1291   29.5758 C   0  0  0  0  0  0  0  0  0  0  0  0
    2.1008   -9.0410   29.1852 N   0  0  0  0  0  0  0  0  0  0  0  0
    3.4829  -10.5697   30.2091 N   0  0  0  0  0  0  0  0  0  0  0  0
   -0.3363   -6.1172   27.5628 C   0  0  0  0  0  0  0  0  0  0  0  0
    3.0331   -7.4400   27.6362 C   0  0  0  0  0  0  0  0  0  0  0  0
    5.4553   -8.5933   27.9644 C   0  0  0  0  0  0  0  0  0  0  0  0
   -2.3870  -12.8440   19.2512 C   0  0  0  0  0  0  0  0  0  0  0  0
    0.5331   -7.6964   16.2751 C   0  0  0  0  0  0  0  0  0  0  0  0
   -0.6740  -10.8737   18.0482 C   0  0  0  0  0  0  0  0  0  0  0  0
    5.6751  -10.5870   29.7637 O   0  0  0  0  0  0  0  0  0  0  0  0
    1.7612   -5.6483   26.7172 C   0  0  0  0  0  0  0  0  0  0  0  0
    0.2221   -9.8326   17.4055 C   0  0  0  0  0  0  0  0  0  0  0  0
    4.3850   -9.0730   28.6745 C   0  0  0  0  0  0  0  0  0  0  0  0
  1  7  4  0
  1 22  4  0
  2 17  4  0
  2 20  4  0
  2 28  4  0
  3  6  1  0
  3 19  1  0
  4 19  1  0
  4 26  1  0
  5 17  4  0
  5 18  4  0
  6 20  1  0
  6 26  1  0
  7 24  4  0
  8 15  4  0
  8 24  4  0
  9 14  4  0
  9 21  4  0
 10 12  4  0
 10 27  4  0
 11 12  4  0
 11 23  4  0
 13 23  4  0
 13 27  4  0
 14 20  4  0
 15 22  4  0
 16 18  4  0
 16 25  2  0
 16 28  4  0
 21 28  4  0
 24 27  1  0
M  END
$$$$

 Created by Python create_sdf_string function

 28 31  0  0  0  0  0  0  0  0999 V2000
   -1.0054  -13.0622   19.1198 C   0  0  0  0  0  0  0  0  0  0  0  0
    3.1478   -8.5360   28.5161 C   0  0  0  0  0  0  0  0  0  0  0  0
    0.5798   -7.1906   27.9330 C   0  0  0  0  0  0  0  0  0  0  0  0
    0.3978   -5.1561   26.6955 C   0  0  0  0  0  0  0  0  0  0  0  0
    2.3063  -10.0533   30.0125 C   0  0  0  0  0  0  0  0  0  0  0  0
    1.8591   -6.8254   27.4685 N   0  0  0  0  0  0  0  0  0  0  0  0
   -0.2167  -12.1055   18.5568 C   0  0  0  0  0  0  0  0  0  0  0  0
   -2.0661  -10.6994   18.1916 C   0  0  0  0  0  0  0  0  0  0  0  0
    5.2703   -7.5691   27.1123 C   0  0  0  0  0  0  0  0  0  0  0  0
    1.6204   -9.9887   17.2935 C   0  0  0  0  0  0  0  0  0  0  0  0
    1.8931   -7.9265   16.2047 C   0  0  0  0  0  0  0  0  0  0  0  0
    2.4396   -9.0801   16.7132 C   0  0  0  0  0  0  0  0  0  0  0  0
   -0.2575   -8.6234   16.8582 C   0  0  0  0  0  0  0  0  0  0  0  0
    4.0614   -7.0367   27.0106 N   0  0  0  0  0  0  0  0  0  0  0  0
   -2.9133  -11.6279   18.7578 C   0  0  0  0  0  0  0  0  0  0  0  0
    4.5688  -10.1291   29.5758 C   0  0  0  0  0  0  0  0  0  0  0  0
    2.1008   -9.0410   29.1852 N   0  0  0  0  0  0  0  0  0  0  0  0
    3.4829  -10.5697   30.2091 N   0  0  0  0  0  0  0  0  0  0  0  0
   -0.3363   -6.1172   27.5628 C   0  0  0  0  0  0  0  0  0  0  0  0
    3.0331   -7.4400   27.6362 C   0  0  0  0  0  0  0  0  0  0  0  0
    5.4553   -8.5933   27.9644 C   0  0  0  0  0  0  0  0  0  0  0  0
   -2.3870  -12.8440   19.2512 C   0  0  0  0  0  0  0  0  0  0  0  0
    0.5331   -7.6964   16.2751 C   0  0  0  0  0  0  0  0  0  0  0  0
   -0.6740  -10.8737   18.0482 C   0  0  0  0  0  0  0  0  0  0  0  0
    5.6751  -10.5870   29.7637 O   0  0  0  0  0  0  0  0  0  0  0  0
    1.7612   -5.6483   26.7172 C   0  0  0  0  0  0  0  0  0  0  0  0
    0.2221   -9.8326   17.4055 C   0  0  0  0  0  0  0  0  0  0  0  0
    4.3850   -9.0730   28.6745 C   0  0  0  0  0  0  0  0  0  0  0  0
  1  7  4  0
  1 22  4  0
  2 17  4  0
  2 20  4  0
  2 28  4  0
  3  6  1  0
  3 19  1  0
  4 19  1  0
  4 26  1  0
  5 17  4  0
  5 18  4  0
  6 20  1  0
  6 26  1  0
  7 24  4  0
  8 15  4  0
  8 24  4  0
  9 14  4  0
  9 21  4  0
 10 12  4  0
 10 27  4  0
 11 12  4  0
 11 23  4  0
 13 23  4  0
 13 27  4  0
 14 20  4  0
 15 22  4  0
 16 18  4  0
 16 25  2  0
 16 28  4  0
 21 28  4  0
 24 27  1  0
M  END
$$$$

 Created by Python create_sdf_string function

 28 31  0  0  0  0  0  0  0  0999 V2000
   -1.0054  -13.0622   19.1198 C   0  0  0  0  0  0  0  0  0  0  0  0
    3.1478   -8.5360   28.5161 C   0  0  0  0  0  0  0  0  0  0  0  0
    0.5798   -7.1906   27.9330 C   0  0  0  0  0  0  0  0  0  0  0  0
    0.3978   -5.1561   26.6955 C   0  0  0  0  0  0  0  0  0  0  0  0
    2.3063  -10.0533   30.0125 C   0  0  0  0  0  0  0  0  0  0  0  0
    1.8591   -6.8254   27.4685 N   0  0  0  0  0  0  0  0  0  0  0  0
   -0.2167  -12.1055   18.5568 C   0  0  0  0  0  0  0  0  0  0  0  0
   -2.0661  -10.6994   18.1916 C   0  0  0  0  0  0  0  0  0  0  0  0
    5.2703   -7.5691   27.1123 C   0  0  0  0  0  0  0  0  0  0  0  0
    1.6204   -9.9887   17.2935 C   0  0  0  0  0  0  0  0  0  0  0  0
    1.8931   -7.9265   16.2047 C   0  0  0  0  0  0  0  0  0  0  0  0
    2.4396   -9.0801   16.7132 C   0  0  0  0  0  0  0  0  0  0  0  0
   -0.2575   -8.6234   16.8582 C   0  0  0  0  0  0  0  0  0  0  0  0
    4.0614   -7.0367   27.0106 N   0  0  0  0  0  0  0  0  0  0  0  0
   -2.9133  -11.6279   18.7578 C   0  0  0  0  0  0  0  0  0  0  0  0
    4.5688  -10.1291   29.5758 C   0  0  0  0  0  0  0  0  0  0  0  0
    2.1008   -9.0410   29.1852 N   0  0  0  0  0  0  0  0  0  0  0  0
    3.4829  -10.5697   30.2091 N   0  0  0  0  0  0  0  0  0  0  0  0
   -0.3363   -6.1172   27.5628 C   0  0  0  0  0  0  0  0  0  0  0  0
    3.0331   -7.4400   27.6362 C   0  0  0  0  0  0  0  0  0  0  0  0
    5.4553   -8.5933   27.9644 C   0  0  0  0  0  0  0  0  0  0  0  0
   -2.3870  -12.8440   19.2512 C   0  0  0  0  0  0  0  0  0  0  0  0
    0.5331   -7.6964   16.2751 C   0  0  0  0  0  0  0  0  0  0  0  0
   -0.6740  -10.8737   18.0482 C   0  0  0  0  0  0  0  0  0  0  0  0
    5.6751  -10.5870   29.7637 O   0  0  0  0  0  0  0  0  0  0  0  0
    1.7612   -5.6483   26.7172 C   0  0  0  0  0  0  0  0  0  0  0  0
    0.2221   -9.8326   17.4055 C   0  0  0  0  0  0  0  0  0  0  0  0
    4.3850   -9.0730   28.6745 C   0  0  0  0  0  0  0  0  0  0  0  0
  1  7  4  0
  1 22  4  0
  2 17  4  0
  2 20  4  0
  2 28  4  0
  3  6  1  0
  3 19  1  0
  4 19  1  0
  4 26  1  0
  5 17  4  0
  5 18  4  0
  6 20  1  0
  6 26  1  0
  7 24  4  0
  8 15  4  0
  8 24  4  0
  9 14  4  0
  9 21  4  0
 10 12  4  0
 10 27  4  0
 11 12  4  0
 11 23  4  0
 13 23  4  0
 13 27  4  0
 14 20  4  0
 15 22  4  0
 16 18  4  0
 16 25  2  0
 16 28  4  0
 21 28  4  0
 24 27  1  0
M  END
$$$$

 Created by Python create_sdf_string function

 28 31  0  0  0  0  0  0  0  0999 V2000
   -1.0054  -13.0622   19.1198 C   0  0  0  0  0  0  0  0  0  0  0  0
    3.1478   -8.5360   28.5161 C   0  0  0  0  0  0  0  0  0  0  0  0
    0.5798   -7.1906   27.9330 C   0  0  0  0  0  0  0  0  0  0  0  0
    0.3978   -5.1561   26.6955 C   0  0  0  0  0  0  0  0  0  0  0  0
    2.3063  -10.0533   30.0125 C   0  0  0  0  0  0  0  0  0  0  0  0
    1.8591   -6.8254   27.4685 N   0  0  0  0  0  0  0  0  0  0  0  0
   -0.2167  -12.1055   18.5568 C   0  0  0  0  0  0  0  0  0  0  0  0
   -2.0661  -10.6994   18.1916 C   0  0  0  0  0  0  0  0  0  0  0  0
    5.2703   -7.5691   27.1123 C   0  0  0  0  0  0  0  0  0  0  0  0
    1.6204   -9.9887   17.2935 C   0  0  0  0  0  0  0  0  0  0  0  0
    1.8931   -7.9265   16.2047 C   0  0  0  0  0  0  0  0  0  0  0  0
    2.4396   -9.0801   16.7132 C   0  0  0  0  0  0  0  0  0  0  0  0
   -0.2575   -8.6234   16.8582 C   0  0  0  0  0  0  0  0  0  0  0  0
    4.0614   -7.0367   27.0106 N   0  0  0  0  0  0  0  0  0  0  0  0
   -2.9133  -11.6279   18.7578 C   0  0  0  0  0  0  0  0  0  0  0  0
    4.5688  -10.1291   29.5758 C   0  0  0  0  0  0  0  0  0  0  0  0
    2.1008   -9.0410   29.1852 N   0  0  0  0  0  0  0  0  0  0  0  0
    3.4829  -10.5697   30.2091 N   0  0  0  0  0  0  0  0  0  0  0  0
   -0.3363   -6.1172   27.5628 C   0  0  0  0  0  0  0  0  0  0  0  0
    3.0331   -7.4400   27.6362 C   0  0  0  0  0  0  0  0  0  0  0  0
    5.4553   -8.5933   27.9644 C   0  0  0  0  0  0  0  0  0  0  0  0
   -2.3870  -12.8440   19.2512 C   0  0  0  0  0  0  0  0  0  0  0  0
    0.5331   -7.6964   16.2751 C   0  0  0  0  0  0  0  0  0  0  0  0
   -0.6740  -10.8737   18.0482 C   0  0  0  0  0  0  0  0  0  0  0  0
    5.6751  -10.5870   29.7637 O   0  0  0  0  0  0  0  0  0  0  0  0
    1.7612   -5.6483   26.7172 C   0  0  0  0  0  0  0  0  0  0  0  0
    0.2221   -9.8326   17.4055 C   0  0  0  0  0  0  0  0  0  0  0  0
    4.3850   -9.0730   28.6745 C   0  0  0  0  0  0  0  0  0  0  0  0
  1  7  4  0
  1 22  4  0
  2 17  4  0
  2 20  4  0
  2 28  4  0
  3  6  1  0
  3 19  1  0
  4 19  1  0
  4 26  1  0
  5 17  4  0
  5 18  4  0
  6 20  1  0
  6 26  1  0
  7 24  4  0
  8 15  4  0
  8 24  4  0
  9 14  4  0
  9 21  4  0
 10 12  4  0
 10 27  4  0
 11 12  4  0
 11 23  4  0
 13 23  4  0
 13 27  4  0
 14 20  4  0
 15 22  4  0
 16 18  4  0
 16 25  2  0
 16 28  4  0
 21 28  4  0
 24 27  1  0
M  END
$$$$

 Created by Python create_sdf_string function

 28 31  0  0  0  0  0  0  0  0999 V2000
   -1.0054  -13.0622   19.1198 C   0  0  0  0  0  0  0  0  0  0  0  0
    3.1478   -8.5360   28.5161 C   0  0  0  0  0  0  0  0  0  0  0  0
    0.5798   -7.1906   27.9330 C   0  0  0  0  0  0  0  0  0  0  0  0
    0.3978   -5.1561   26.6955 C   0  0  0  0  0  0  0  0  0  0  0  0
    2.3063  -10.0533   30.0125 C   0  0  0  0  0  0  0  0  0  0  0  0
    1.8591   -6.8254   27.4685 N   0  0  0  0  0  0  0  0  0  0  0  0
   -0.2167  -12.1055   18.5568 C   0  0  0  0  0  0  0  0  0  0  0  0
   -2.0661  -10.6994   18.1916 C   0  0  0  0  0  0  0  0  0  0  0  0
    5.2703   -7.5691   27.1123 C   0  0  0  0  0  0  0  0  0  0  0  0
    1.6204   -9.9887   17.2935 C   0  0  0  0  0  0  0  0  0  0  0  0
    1.8931   -7.9265   16.2047 C   0  0  0  0  0  0  0  0  0  0  0  0
    2.4396   -9.0801   16.7132 C   0  0  0  0  0  0  0  0  0  0  0  0
   -0.2575   -8.6234   16.8582 C   0  0  0  0  0  0  0  0  0  0  0  0
    4.0614   -7.0367   27.0106 N   0  0  0  0  0  0  0  0  0  0  0  0
   -2.9133  -11.6279   18.7578 C   0  0  0  0  0  0  0  0  0  0  0  0
    4.5688  -10.1291   29.5758 C   0  0  0  0  0  0  0  0  0  0  0  0
    2.1008   -9.0410   29.1852 N   0  0  0  0  0  0  0  0  0  0  0  0
    3.4829  -10.5697   30.2091 N   0  0  0  0  0  0  0  0  0  0  0  0
   -0.3363   -6.1172   27.5628 C   0  0  0  0  0  0  0  0  0  0  0  0
    3.0331   -7.4400   27.6362 C   0  0  0  0  0  0  0  0  0  0  0  0
    5.4553   -8.5933   27.9644 C   0  0  0  0  0  0  0  0  0  0  0  0
   -2.3870  -12.8440   19.2512 C   0  0  0  0  0  0  0  0  0  0  0  0
    0.5331   -7.6964   16.2751 C   0  0  0  0  0  0  0  0  0  0  0  0
   -0.6740  -10.8737   18.0482 C   0  0  0  0  0  0  0  0  0  0  0  0
    5.6751  -10.5870   29.7637 O   0  0  0  0  0  0  0  0  0  0  0  0
    1.7612   -5.6483   26.7172 C   0  0  0  0  0  0  0  0  0  0  0  0
    0.2221   -9.8326   17.4055 C   0  0  0  0  0  0  0  0  0  0  0  0
    4.3850   -9.0730   28.6745 C   0  0  0  0  0  0  0  0  0  0  0  0
  1  7  4  0
  1 22  4  0
  2 17  4  0
  2 20  4  0
  2 28  4  0
  3  6  1  0
  3 19  1  0
  4 19  1  0
  4 26  1  0
  5 17  4  0
  5 18  4  0
  6 20  1  0
  6 26  1  0
  7 24  4  0
  8 15  4  0
  8 24  4  0
  9 14  4  0
  9 21  4  0
 10 12  4  0
 10 27  4  0
 11 12  4  0
 11 23  4  0
 13 23  4  0
 13 27  4  0
 14 20  4  0
 15 22  4  0
 16 18  4  0
 16 25  2  0
 16 28  4  0
 21 28  4  0
 24 27  1  0
M  END
$$$$

 Created by Python create_sdf_string function

 28 31  0  0  0  0  0  0  0  0999 V2000
   -1.0054  -13.0622   19.1198 C   0  0  0  0  0  0  0  0  0  0  0  0
    3.1478   -8.5360   28.5161 C   0  0  0  0  0  0  0  0  0  0  0  0
    0.5798   -7.1906   27.9330 C   0  0  0  0  0  0  0  0  0  0  0  0
    0.3978   -5.1561   26.6955 C   0  0  0  0  0  0  0  0  0  0  0  0
    2.3063  -10.0533   30.0125 C   0  0  0  0  0  0  0  0  0  0  0  0
    1.8591   -6.8254   27.4685 N   0  0  0  0  0  0  0  0  0  0  0  0
   -0.2167  -12.1055   18.5568 C   0  0  0  0  0  0  0  0  0  0  0  0
   -2.0661  -10.6994   18.1916 C   0  0  0  0  0  0  0  0  0  0  0  0
    5.2703   -7.5691   27.1123 C   0  0  0  0  0  0  0  0  0  0  0  0
    1.6204   -9.9887   17.2935 C   0  0  0  0  0  0  0  0  0  0  0  0
    1.8931   -7.9265   16.2047 C   0  0  0  0  0  0  0  0  0  0  0  0
    2.4396   -9.0801   16.7132 C   0  0  0  0  0  0  0  0  0  0  0  0
   -0.2575   -8.6234   16.8582 C   0  0  0  0  0  0  0  0  0  0  0  0
    4.0614   -7.0367   27.0106 N   0  0  0  0  0  0  0  0  0  0  0  0
   -2.9133  -11.6279   18.7578 C   0  0  0  0  0  0  0  0  0  0  0  0
    4.5688  -10.1291   29.5758 C   0  0  0  0  0  0  0  0  0  0  0  0
    2.1008   -9.0410   29.1852 N   0  0  0  0  0  0  0  0  0  0  0  0
    3.4829  -10.5697   30.2091 N   0  0  0  0  0  0  0  0  0  0  0  0
   -0.3363   -6.1172   27.5628 C   0  0  0  0  0  0  0  0  0  0  0  0
    3.0331   -7.4400   27.6362 C   0  0  0  0  0  0  0  0  0  0  0  0
    5.4553   -8.5933   27.9644 C   0  0  0  0  0  0  0  0  0  0  0  0
   -2.3870  -12.8440   19.2512 C   0  0  0  0  0  0  0  0  0  0  0  0
    0.5331   -7.6964   16.2751 C   0  0  0  0  0  0  0  0  0  0  0  0
   -0.6740  -10.8737   18.0482 C   0  0  0  0  0  0  0  0  0  0  0  0
    5.6751  -10.5870   29.7637 O   0  0  0  0  0  0  0  0  0  0  0  0
    1.7612   -5.6483   26.7172 C   0  0  0  0  0  0  0  0  0  0  0  0
    0.2221   -9.8326   17.4055 C   0  0  0  0  0  0  0  0  0  0  0  0
    4.3850   -9.0730   28.6745 C   0  0  0  0  0  0  0  0  0  0  0  0
  1  7  4  0
  1 22  4  0
  2 17  4  0
  2 20  4  0
  2 28  4  0
  3  6  1  0
  3 19  1  0
  4 19  1  0
  4 26  1  0
  5 17  4  0
  5 18  4  0
  6 20  1  0
  6 26  1  0
  7 24  4  0
  8 15  4  0
  8 24  4  0
  9 14  4  0
  9 21  4  0
 10 12  4  0
 10 27  4  0
 11 12  4  0
 11 23  4  0
 13 23  4  0
 13 27  4  0
 14 20  4  0
 15 22  4  0
 16 18  4  0
 16 25  2  0
 16 28  4  0
 21 28  4  0
 24 27  1  0
M  END
$$$$

 Created by Python create_sdf_string function

 28 31  0  0  0  0  0  0  0  0999 V2000
   -1.0054  -13.0622   19.1198 C   0  0  0  0  0  0  0  0  0  0  0  0
    3.1478   -8.5360   28.5161 C   0  0  0  0  0  0  0  0  0  0  0  0
    0.5798   -7.1906   27.9330 C   0  0  0  0  0  0  0  0  0  0  0  0
    0.3978   -5.1561   26.6955 C   0  0  0  0  0  0  0  0  0  0  0  0
    2.3063  -10.0533   30.0125 C   0  0  0  0  0  0  0  0  0  0  0  0
    1.8591   -6.8254   27.4685 N   0  0  0  0  0  0  0  0  0  0  0  0
   -0.2167  -12.1055   18.5568 C   0  0  0  0  0  0  0  0  0  0  0  0
   -2.0661  -10.6994   18.1916 C   0  0  0  0  0  0  0  0  0  0  0  0
    5.2703   -7.5691   27.1123 C   0  0  0  0  0  0  0  0  0  0  0  0
    1.6204   -9.9887   17.2935 C   0  0  0  0  0  0  0  0  0  0  0  0
    1.8931   -7.9265   16.2047 C   0  0  0  0  0  0  0  0  0  0  0  0
    2.4396   -9.0801   16.7132 C   0  0  0  0  0  0  0  0  0  0  0  0
   -0.2575   -8.6234   16.8582 C   0  0  0  0  0  0  0  0  0  0  0  0
    4.0614   -7.0367   27.0106 N   0  0  0  0  0  0  0  0  0  0  0  0
   -2.9133  -11.6279   18.7578 C   0  0  0  0  0  0  0  0  0  0  0  0
    4.5688  -10.1291   29.5758 C   0  0  0  0  0  0  0  0  0  0  0  0
    2.1008   -9.0410   29.1852 N   0  0  0  0  0  0  0  0  0  0  0  0
    3.4829  -10.5697   30.2091 N   0  0  0  0  0  0  0  0  0  0  0  0
   -0.3363   -6.1172   27.5628 C   0  0  0  0  0  0  0  0  0  0  0  0
    3.0331   -7.4400   27.6362 C   0  0  0  0  0  0  0  0  0  0  0  0
    5.4553   -8.5933   27.9644 C   0  0  0  0  0  0  0  0  0  0  0  0
   -2.3870  -12.8440   19.2512 C   0  0  0  0  0  0  0  0  0  0  0  0
    0.5331   -7.6964   16.2751 C   0  0  0  0  0  0  0  0  0  0  0  0
   -0.6740  -10.8737   18.0482 C   0  0  0  0  0  0  0  0  0  0  0  0
    5.6751  -10.5870   29.7637 O   0  0  0  0  0  0  0  0  0  0  0  0
    1.7612   -5.6483   26.7172 C   0  0  0  0  0  0  0  0  0  0  0  0
    0.2221   -9.8326   17.4055 C   0  0  0  0  0  0  0  0  0  0  0  0
    4.3850   -9.0730   28.6745 C   0  0  0  0  0  0  0  0  0  0  0  0
  1  7  4  0
  1 22  4  0
  2 17  4  0
  2 20  4  0
  2 28  4  0
  3  6  1  0
  3 19  1  0
  4 19  1  0
  4 26  1  0
  5 17  4  0
  5 18  4  0
  6 20  1  0
  6 26  1  0
  7 24  4  0
  8 15  4  0
  8 24  4  0
  9 14  4  0
  9 21  4  0
 10 12  4  0
 10 27  4  0
 11 12  4  0
 11 23  4  0
 13 23  4  0
 13 27  4  0
 14 20  4  0
 15 22  4  0
 16 18  4  0
 16 25  2  0
 16 28  4  0
 21 28  4  0
 24 27  1  0
M  END
$$$$

 Created by Python create_sdf_string function

 28 31  0  0  0  0  0  0  0  0999 V2000
   -1.0054  -13.0622   19.1198 C   0  0  0  0  0  0  0  0  0  0  0  0
    3.1478   -8.5360   28.5161 C   0  0  0  0  0  0  0  0  0  0  0  0
    0.5798   -7.1906   27.9330 C   0  0  0  0  0  0  0  0  0  0  0  0
    0.3978   -5.1561   26.6955 C   0  0  0  0  0  0  0  0  0  0  0  0
    2.3063  -10.0533   30.0125 C   0  0  0  0  0  0  0  0  0  0  0  0
    1.8591   -6.8254   27.4685 N   0  0  0  0  0  0  0  0  0  0  0  0
   -0.2167  -12.1055   18.5568 C   0  0  0  0  0  0  0  0  0  0  0  0
   -2.0661  -10.6994   18.1916 C   0  0  0  0  0  0  0  0  0  0  0  0
    5.2703   -7.5691   27.1123 C   0  0  0  0  0  0  0  0  0  0  0  0
    1.6204   -9.9887   17.2935 C   0  0  0  0  0  0  0  0  0  0  0  0
    1.8931   -7.9265   16.2047 C   0  0  0  0  0  0  0  0  0  0  0  0
    2.4396   -9.0801   16.7132 C   0  0  0  0  0  0  0  0  0  0  0  0
   -0.2575   -8.6234   16.8582 C   0  0  0  0  0  0  0  0  0  0  0  0
    4.0614   -7.0367   27.0106 N   0  0  0  0  0  0  0  0  0  0  0  0
   -2.9133  -11.6279   18.7578 C   0  0  0  0  0  0  0  0  0  0  0  0
    4.5688  -10.1291   29.5758 C   0  0  0  0  0  0  0  0  0  0  0  0
    2.1008   -9.0410   29.1852 N   0  0  0  0  0  0  0  0  0  0  0  0
    3.4829  -10.5697   30.2091 N   0  0  0  0  0  0  0  0  0  0  0  0
   -0.3363   -6.1172   27.5628 C   0  0  0  0  0  0  0  0  0  0  0  0
    3.0331   -7.4400   27.6362 C   0  0  0  0  0  0  0  0  0  0  0  0
    5.4553   -8.5933   27.9644 C   0  0  0  0  0  0  0  0  0  0  0  0
   -2.3870  -12.8440   19.2512 C   0  0  0  0  0  0  0  0  0  0  0  0
    0.5331   -7.6964   16.2751 C   0  0  0  0  0  0  0  0  0  0  0  0
   -0.6740  -10.8737   18.0482 C   0  0  0  0  0  0  0  0  0  0  0  0
    5.6751  -10.5870   29.7637 O   0  0  0  0  0  0  0  0  0  0  0  0
    1.7612   -5.6483   26.7172 C   0  0  0  0  0  0  0  0  0  0  0  0
    0.2221   -9.8326   17.4055 C   0  0  0  0  0  0  0  0  0  0  0  0
    4.3850   -9.0730   28.6745 C   0  0  0  0  0  0  0  0  0  0  0  0
  1  7  4  0
  1 22  4  0
  2 17  4  0
  2 20  4  0
  2 28  4  0
  3  6  1  0
  3 19  1  0
  4 19  1  0
  4 26  1  0
  5 17  4  0
  5 18  4  0
  6 20  1  0
  6 26  1  0
  7 24  4  0
  8 15  4  0
  8 24  4  0
  9 14  4  0
  9 21  4  0
 10 12  4  0
 10 27  4  0
 11 12  4  0
 11 23  4  0
 13 23  4  0
 13 27  4  0
 14 20  4  0
 15 22  4  0
 16 18  4  0
 16 25  2  0
 16 28  4  0
 21 28  4  0
 24 27  1  0
M  END
$$$$

 Created by Python create_sdf_string function

 28 31  0  0  0  0  0  0  0  0999 V2000
   -1.0054  -13.0622   19.1198 C   0  0  0  0  0  0  0  0  0  0  0  0
    3.1478   -8.5360   28.5161 C   0  0  0  0  0  0  0  0  0  0  0  0
    0.5798   -7.1906   27.9330 C   0  0  0  0  0  0  0  0  0  0  0  0
    0.3978   -5.1561   26.6955 C   0  0  0  0  0  0  0  0  0  0  0  0
    2.3063  -10.0533   30.0125 C   0  0  0  0  0  0  0  0  0  0  0  0
    1.8591   -6.8254   27.4685 N   0  0  0  0  0  0  0  0  0  0  0  0
   -0.2167  -12.1055   18.5568 C   0  0  0  0  0  0  0  0  0  0  0  0
   -2.0661  -10.6994   18.1916 C   0  0  0  0  0  0  0  0  0  0  0  0
    5.2703   -7.5691   27.1123 C   0  0  0  0  0  0  0  0  0  0  0  0
    1.6204   -9.9887   17.2935 C   0  0  0  0  0  0  0  0  0  0  0  0
    1.8931   -7.9265   16.2047 C   0  0  0  0  0  0  0  0  0  0  0  0
    2.4396   -9.0801   16.7132 C   0  0  0  0  0  0  0  0  0  0  0  0
   -0.2575   -8.6234   16.8582 C   0  0  0  0  0  0  0  0  0  0  0  0
    4.0614   -7.0367   27.0106 N   0  0  0  0  0  0  0  0  0  0  0  0
   -2.9133  -11.6279   18.7578 C   0  0  0  0  0  0  0  0  0  0  0  0
    4.5688  -10.1291   29.5758 C   0  0  0  0  0  0  0  0  0  0  0  0
    2.1008   -9.0410   29.1852 N   0  0  0  0  0  0  0  0  0  0  0  0
    3.4829  -10.5697   30.2091 N   0  0  0  0  0  0  0  0  0  0  0  0
   -0.3363   -6.1172   27.5628 C   0  0  0  0  0  0  0  0  0  0  0  0
    3.0331   -7.4400   27.6362 C   0  0  0  0  0  0  0  0  0  0  0  0
    5.4553   -8.5933   27.9644 C   0  0  0  0  0  0  0  0  0  0  0  0
   -2.3870  -12.8440   19.2512 C   0  0  0  0  0  0  0  0  0  0  0  0
    0.5331   -7.6964   16.2751 C   0  0  0  0  0  0  0  0  0  0  0  0
   -0.6740  -10.8737   18.0482 C   0  0  0  0  0  0  0  0  0  0  0  0
    5.6751  -10.5870   29.7637 O   0  0  0  0  0  0  0  0  0  0  0  0
    1.7612   -5.6483   26.7172 C   0  0  0  0  0  0  0  0  0  0  0  0
    0.2221   -9.8326   17.4055 C   0  0  0  0  0  0  0  0  0  0  0  0
    4.3850   -9.0730   28.6745 C   0  0  0  0  0  0  0  0  0  0  0  0
  1  7  4  0
  1 22  4  0
  2 17  4  0
  2 20  4  0
  2 28  4  0
  3  6  1  0
  3 19  1  0
  4 19  1  0
  4 26  1  0
  5 17  4  0
  5 18  4  0
  6 20  1  0
  6 26  1  0
  7 24  4  0
  8 15  4  0
  8 24  4  0
  9 14  4  0
  9 21  4  0
 10 12  4  0
 10 27  4  0
 11 12  4  0
 11 23  4  0
 13 23  4  0
 13 27  4  0
 14 20  4  0
 15 22  4  0
 16 18  4  0
 16 25  2  0
 16 28  4  0
 21 28  4  0
 24 27  1  0
M  END
$$$$

 Created by Python create_sdf_string function

 28 31  0  0  0  0  0  0  0  0999 V2000
   -1.0054  -13.0622   19.1198 C   0  0  0  0  0  0  0  0  0  0  0  0
    3.1478   -8.5360   28.5161 C   0  0  0  0  0  0  0  0  0  0  0  0
    0.5798   -7.1906   27.9330 C   0  0  0  0  0  0  0  0  0  0  0  0
    0.3978   -5.1561   26.6955 C   0  0  0  0  0  0  0  0  0  0  0  0
    2.3063  -10.0533   30.0125 C   0  0  0  0  0  0  0  0  0  0  0  0
    1.8591   -6.8254   27.4685 N   0  0  0  0  0  0  0  0  0  0  0  0
   -0.2167  -12.1055   18.5568 C   0  0  0  0  0  0  0  0  0  0  0  0
   -2.0661  -10.6994   18.1916 C   0  0  0  0  0  0  0  0  0  0  0  0
    5.2703   -7.5691   27.1123 C   0  0  0  0  0  0  0  0  0  0  0  0
    1.6204   -9.9887   17.2935 C   0  0  0  0  0  0  0  0  0  0  0  0
    1.8931   -7.9265   16.2047 C   0  0  0  0  0  0  0  0  0  0  0  0
    2.4396   -9.0801   16.7132 C   0  0  0  0  0  0  0  0  0  0  0  0
   -0.2575   -8.6234   16.8582 C   0  0  0  0  0  0  0  0  0  0  0  0
    4.0614   -7.0367   27.0106 N   0  0  0  0  0  0  0  0  0  0  0  0
   -2.9133  -11.6279   18.7578 C   0  0  0  0  0  0  0  0  0  0  0  0
    4.5688  -10.1291   29.5758 C   0  0  0  0  0  0  0  0  0  0  0  0
    2.1008   -9.0410   29.1852 N   0  0  0  0  0  0  0  0  0  0  0  0
    3.4829  -10.5697   30.2091 N   0  0  0  0  0  0  0  0  0  0  0  0
   -0.3363   -6.1172   27.5628 C   0  0  0  0  0  0  0  0  0  0  0  0
    3.0331   -7.4400   27.6362 C   0  0  0  0  0  0  0  0  0  0  0  0
    5.4553   -8.5933   27.9644 C   0  0  0  0  0  0  0  0  0  0  0  0
   -2.3870  -12.8440   19.2512 C   0  0  0  0  0  0  0  0  0  0  0  0
    0.5331   -7.6964   16.2751 C   0  0  0  0  0  0  0  0  0  0  0  0
   -0.6740  -10.8737   18.0482 C   0  0  0  0  0  0  0  0  0  0  0  0
    5.6751  -10.5870   29.7637 O   0  0  0  0  0  0  0  0  0  0  0  0
    1.7612   -5.6483   26.7172 C   0  0  0  0  0  0  0  0  0  0  0  0
    0.2221   -9.8326   17.4055 C   0  0  0  0  0  0  0  0  0  0  0  0
    4.3850   -9.0730   28.6745 C   0  0  0  0  0  0  0  0  0  0  0  0
  1  7  4  0
  1 22  4  0
  2 17  4  0
  2 20  4  0
  2 28  4  0
  3  6  1  0
  3 19  1  0
  4 19  1  0
  4 26  1  0
  5 17  4  0
  5 18  4  0
  6 20  1  0
  6 26  1  0
  7 24  4  0
  8 15  4  0
  8 24  4  0
  9 14  4  0
  9 21  4  0
 10 12  4  0
 10 27  4  0
 11 12  4  0
 11 23  4  0
 13 23  4  0
 13 27  4  0
 14 20  4  0
 15 22  4  0
 16 18  4  0
 16 25  2  0
 16 28  4  0
 21 28  4  0
 24 27  1  0
M  END
$$$$

 Created by Python create_sdf_string function

 28 31  0  0  0  0  0  0  0  0999 V2000
   -1.0054  -13.0622   19.1198 C   0  0  0  0  0  0  0  0  0  0  0  0
    3.1478   -8.5360   28.5161 C   0  0  0  0  0  0  0  0  0  0  0  0
    0.5798   -7.1906   27.9330 C   0  0  0  0  0  0  0  0  0  0  0  0
    0.3978   -5.1561   26.6955 C   0  0  0  0  0  0  0  0  0  0  0  0
    2.3063  -10.0533   30.0125 C   0  0  0  0  0  0  0  0  0  0  0  0
    1.8591   -6.8254   27.4685 N   0  0  0  0  0  0  0  0  0  0  0  0
   -0.2167  -12.1055   18.5568 C   0  0  0  0  0  0  0  0  0  0  0  0
   -2.0661  -10.6994   18.1916 C   0  0  0  0  0  0  0  0  0  0  0  0
    5.2703   -7.5691   27.1123 C   0  0  0  0  0  0  0  0  0  0  0  0
    1.6204   -9.9887   17.2935 C   0  0  0  0  0  0  0  0  0  0  0  0
    1.8931   -7.9265   16.2047 C   0  0  0  0  0  0  0  0  0  0  0  0
    2.4396   -9.0801   16.7132 C   0  0  0  0  0  0  0  0  0  0  0  0
   -0.2575   -8.6234   16.8582 C   0  0  0  0  0  0  0  0  0  0  0  0
    4.0614   -7.0367   27.0106 N   0  0  0  0  0  0  0  0  0  0  0  0
   -2.9133  -11.6279   18.7578 C   0  0  0  0  0  0  0  0  0  0  0  0
    4.5688  -10.1291   29.5758 C   0  0  0  0  0  0  0  0  0  0  0  0
    2.1008   -9.0410   29.1852 N   0  0  0  0  0  0  0  0  0  0  0  0
    3.4829  -10.5697   30.2091 N   0  0  0  0  0  0  0  0  0  0  0  0
   -0.3363   -6.1172   27.5628 C   0  0  0  0  0  0  0  0  0  0  0  0
    3.0331   -7.4400   27.6362 C   0  0  0  0  0  0  0  0  0  0  0  0
    5.4553   -8.5933   27.9644 C   0  0  0  0  0  0  0  0  0  0  0  0
   -2.3870  -12.8440   19.2512 C   0  0  0  0  0  0  0  0  0  0  0  0
    0.5331   -7.6964   16.2751 C   0  0  0  0  0  0  0  0  0  0  0  0
   -0.6740  -10.8737   18.0482 C   0  0  0  0  0  0  0  0  0  0  0  0
    5.6751  -10.5870   29.7637 O   0  0  0  0  0  0  0  0  0  0  0  0
    1.7612   -5.6483   26.7172 C   0  0  0  0  0  0  0  0  0  0  0  0
    0.2221   -9.8326   17.4055 C   0  0  0  0  0  0  0  0  0  0  0  0
    4.3850   -9.0730   28.6745 C   0  0  0  0  0  0  0  0  0  0  0  0
  1  7  4  0
  1 22  4  0
  2 17  4  0
  2 20  4  0
  2 28  4  0
  3  6  1  0
  3 19  1  0
  4 19  1  0
  4 26  1  0
  5 17  4  0
  5 18  4  0
  6 20  1  0
  6 26  1  0
  7 24  4  0
  8 15  4  0
  8 24  4  0
  9 14  4  0
  9 21  4  0
 10 12  4  0
 10 27  4  0
 11 12  4  0
 11 23  4  0
 13 23  4  0
 13 27  4  0
 14 20  4  0
 15 22  4  0
 16 18  4  0
 16 25  2  0
 16 28  4  0
 21 28  4  0
 24 27  1  0
M  END
$$$$

 Created by Python create_sdf_string function

 28 31  0  0  0  0  0  0  0  0999 V2000
   -1.0054  -13.0622   19.1198 C   0  0  0  0  0  0  0  0  0  0  0  0
    3.1478   -8.5360   28.5161 C   0  0  0  0  0  0  0  0  0  0  0  0
    0.5798   -7.1906   27.9330 C   0  0  0  0  0  0  0  0  0  0  0  0
    0.3978   -5.1561   26.6955 C   0  0  0  0  0  0  0  0  0  0  0  0
    2.3063  -10.0533   30.0125 C   0  0  0  0  0  0  0  0  0  0  0  0
    1.8591   -6.8254   27.4685 N   0  0  0  0  0  0  0  0  0  0  0  0
   -0.2167  -12.1055   18.5568 C   0  0  0  0  0  0  0  0  0  0  0  0
   -2.0661  -10.6994   18.1916 C   0  0  0  0  0  0  0  0  0  0  0  0
    5.2703   -7.5691   27.1123 C   0  0  0  0  0  0  0  0  0  0  0  0
    1.6204   -9.9887   17.2935 C   0  0  0  0  0  0  0  0  0  0  0  0
    1.8931   -7.9265   16.2047 C   0  0  0  0  0  0  0  0  0  0  0  0
    2.4396   -9.0801   16.7132 C   0  0  0  0  0  0  0  0  0  0  0  0
   -0.2575   -8.6234   16.8582 C   0  0  0  0  0  0  0  0  0  0  0  0
    4.0614   -7.0367   27.0106 N   0  0  0  0  0  0  0  0  0  0  0  0
   -2.9133  -11.6279   18.7578 C   0  0  0  0  0  0  0  0  0  0  0  0
    4.5688  -10.1291   29.5758 C   0  0  0  0  0  0  0  0  0  0  0  0
    2.1008   -9.0410   29.1852 N   0  0  0  0  0  0  0  0  0  0  0  0
    3.4829  -10.5697   30.2091 N   0  0  0  0  0  0  0  0  0  0  0  0
   -0.3363   -6.1172   27.5628 C   0  0  0  0  0  0  0  0  0  0  0  0
    3.0331   -7.4400   27.6362 C   0  0  0  0  0  0  0  0  0  0  0  0
    5.4553   -8.5933   27.9644 C   0  0  0  0  0  0  0  0  0  0  0  0
   -2.3870  -12.8440   19.2512 C   0  0  0  0  0  0  0  0  0  0  0  0
    0.5331   -7.6964   16.2751 C   0  0  0  0  0  0  0  0  0  0  0  0
   -0.6740  -10.8737   18.0482 C   0  0  0  0  0  0  0  0  0  0  0  0
    5.6751  -10.5870   29.7637 O   0  0  0  0  0  0  0  0  0  0  0  0
    1.7612   -5.6483   26.7172 C   0  0  0  0  0  0  0  0  0  0  0  0
    0.2221   -9.8326   17.4055 C   0  0  0  0  0  0  0  0  0  0  0  0
    4.3850   -9.0730   28.6745 C   0  0  0  0  0  0  0  0  0  0  0  0
  1  7  4  0
  1 22  4  0
  2 17  4  0
  2 20  4  0
  2 28  4  0
  3  6  1  0
  3 19  1  0
  4 19  1  0
  4 26  1  0
  5 17  4  0
  5 18  4  0
  6 20  1  0
  6 26  1  0
  7 24  4  0
  8 15  4  0
  8 24  4  0
  9 14  4  0
  9 21  4  0
 10 12  4  0
 10 27  4  0
 11 12  4  0
 11 23  4  0
 13 23  4  0
 13 27  4  0
 14 20  4  0
 15 22  4  0
 16 18  4  0
 16 25  2  0
 16 28  4  0
 21 28  4  0
 24 27  1  0
M  END
$$$$

 Created by Python create_sdf_string function

 28 31  0  0  0  0  0  0  0  0999 V2000
   -1.0054  -13.0622   19.1198 C   0  0  0  0  0  0  0  0  0  0  0  0
    3.1478   -8.5360   28.5161 C   0  0  0  0  0  0  0  0  0  0  0  0
    0.5798   -7.1906   27.9330 C   0  0  0  0  0  0  0  0  0  0  0  0
    0.3978   -5.1561   26.6955 C   0  0  0  0  0  0  0  0  0  0  0  0
    2.3063  -10.0533   30.0125 C   0  0  0  0  0  0  0  0  0  0  0  0
    1.8591   -6.8254   27.4685 N   0  0  0  0  0  0  0  0  0  0  0  0
   -0.2167  -12.1055   18.5568 C   0  0  0  0  0  0  0  0  0  0  0  0
   -2.0661  -10.6994   18.1916 C   0  0  0  0  0  0  0  0  0  0  0  0
    5.2703   -7.5691   27.1123 C   0  0  0  0  0  0  0  0  0  0  0  0
    1.6204   -9.9887   17.2935 C   0  0  0  0  0  0  0  0  0  0  0  0
    1.8931   -7.9265   16.2047 C   0  0  0  0  0  0  0  0  0  0  0  0
    2.4396   -9.0801   16.7132 C   0  0  0  0  0  0  0  0  0  0  0  0
   -0.2575   -8.6234   16.8582 C   0  0  0  0  0  0  0  0  0  0  0  0
    4.0614   -7.0367   27.0106 N   0  0  0  0  0  0  0  0  0  0  0  0
   -2.9133  -11.6279   18.7578 C   0  0  0  0  0  0  0  0  0  0  0  0
    4.5688  -10.1291   29.5758 C   0  0  0  0  0  0  0  0  0  0  0  0
    2.1008   -9.0410   29.1852 N   0  0  0  0  0  0  0  0  0  0  0  0
    3.4829  -10.5697   30.2091 N   0  0  0  0  0  0  0  0  0  0  0  0
   -0.3363   -6.1172   27.5628 C   0  0  0  0  0  0  0  0  0  0  0  0
    3.0331   -7.4400   27.6362 C   0  0  0  0  0  0  0  0  0  0  0  0
    5.4553   -8.5933   27.9644 C   0  0  0  0  0  0  0  0  0  0  0  0
   -2.3870  -12.8440   19.2512 C   0  0  0  0  0  0  0  0  0  0  0  0
    0.5331   -7.6964   16.2751 C   0  0  0  0  0  0  0  0  0  0  0  0
   -0.6740  -10.8737   18.0482 C   0  0  0  0  0  0  0  0  0  0  0  0
    5.6751  -10.5870   29.7637 O   0  0  0  0  0  0  0  0  0  0  0  0
    1.7612   -5.6483   26.7172 C   0  0  0  0  0  0  0  0  0  0  0  0
    0.2221   -9.8326   17.4055 C   0  0  0  0  0  0  0  0  0  0  0  0
    4.3850   -9.0730   28.6745 C   0  0  0  0  0  0  0  0  0  0  0  0
  1  7  4  0
  1 22  4  0
  2 17  4  0
  2 20  4  0
  2 28  4  0
  3  6  1  0
  3 19  1  0
  4 19  1  0
  4 26  1  0
  5 17  4  0
  5 18  4  0
  6 20  1  0
  6 26  1  0
  7 24  4  0
  8 15  4  0
  8 24  4  0
  9 14  4  0
  9 21  4  0
 10 12  4  0
 10 27  4  0
 11 12  4  0
 11 23  4  0
 13 23  4  0
 13 27  4  0
 14 20  4  0
 15 22  4  0
 16 18  4  0
 16 25  2  0
 16 28  4  0
 21 28  4  0
 24 27  1  0
M  END
$$$$

 Created by Python create_sdf_string function

 28 31  0  0  0  0  0  0  0  0999 V2000
   -1.0054  -13.0622   19.1198 C   0  0  0  0  0  0  0  0  0  0  0  0
    3.1478   -8.5360   28.5161 C   0  0  0  0  0  0  0  0  0  0  0  0
    0.5798   -7.1906   27.9330 C   0  0  0  0  0  0  0  0  0  0  0  0
    0.3978   -5.1561   26.6955 C   0  0  0  0  0  0  0  0  0  0  0  0
    2.3063  -10.0533   30.0125 C   0  0  0  0  0  0  0  0  0  0  0  0
    1.8591   -6.8254   27.4685 N   0  0  0  0  0  0  0  0  0  0  0  0
   -0.2167  -12.1055   18.5568 C   0  0  0  0  0  0  0  0  0  0  0  0
   -2.0661  -10.6994   18.1916 C   0  0  0  0  0  0  0  0  0  0  0  0
    5.2703   -7.5691   27.1123 C   0  0  0  0  0  0  0  0  0  0  0  0
    1.6204   -9.9887   17.2935 C   0  0  0  0  0  0  0  0  0  0  0  0
    1.8931   -7.9265   16.2047 C   0  0  0  0  0  0  0  0  0  0  0  0
    2.4396   -9.0801   16.7132 C   0  0  0  0  0  0  0  0  0  0  0  0
   -0.2575   -8.6234   16.8582 C   0  0  0  0  0  0  0  0  0  0  0  0
    4.0614   -7.0367   27.0106 N   0  0  0  0  0  0  0  0  0  0  0  0
   -2.9133  -11.6279   18.7578 C   0  0  0  0  0  0  0  0  0  0  0  0
    4.5688  -10.1291   29.5758 C   0  0  0  0  0  0  0  0  0  0  0  0
    2.1008   -9.0410   29.1852 N   0  0  0  0  0  0  0  0  0  0  0  0
    3.4829  -10.5697   30.2091 N   0  0  0  0  0  0  0  0  0  0  0  0
   -0.3363   -6.1172   27.5628 C   0  0  0  0  0  0  0  0  0  0  0  0
    3.0331   -7.4400   27.6362 C   0  0  0  0  0  0  0  0  0  0  0  0
    5.4553   -8.5933   27.9644 C   0  0  0  0  0  0  0  0  0  0  0  0
   -2.3870  -12.8440   19.2512 C   0  0  0  0  0  0  0  0  0  0  0  0
    0.5331   -7.6964   16.2751 C   0  0  0  0  0  0  0  0  0  0  0  0
   -0.6740  -10.8737   18.0482 C   0  0  0  0  0  0  0  0  0  0  0  0
    5.6751  -10.5870   29.7637 O   0  0  0  0  0  0  0  0  0  0  0  0
    1.7612   -5.6483   26.7172 C   0  0  0  0  0  0  0  0  0  0  0  0
    0.2221   -9.8326   17.4055 C   0  0  0  0  0  0  0  0  0  0  0  0
    4.3850   -9.0730   28.6745 C   0  0  0  0  0  0  0  0  0  0  0  0
  1  7  4  0
  1 22  4  0
  2 17  4  0
  2 20  4  0
  2 28  4  0
  3  6  1  0
  3 19  1  0
  4 19  1  0
  4 26  1  0
  5 17  4  0
  5 18  4  0
  6 20  1  0
  6 26  1  0
  7 24  4  0
  8 15  4  0
  8 24  4  0
  9 14  4  0
  9 21  4  0
 10 12  4  0
 10 27  4  0
 11 12  4  0
 11 23  4  0
 13 23  4  0
 13 27  4  0
 14 20  4  0
 15 22  4  0
 16 18  4  0
 16 25  2  0
 16 28  4  0
 21 28  4  0
 24 27  1  0
M  END
$$$$

 Created by Python create_sdf_string function

 28 31  0  0  0  0  0  0  0  0999 V2000
   -1.0054  -13.0622   19.1198 C   0  0  0  0  0  0  0  0  0  0  0  0
    3.1478   -8.5360   28.5161 C   0  0  0  0  0  0  0  0  0  0  0  0
    0.5798   -7.1906   27.9330 C   0  0  0  0  0  0  0  0  0  0  0  0
    0.3978   -5.1561   26.6955 C   0  0  0  0  0  0  0  0  0  0  0  0
    2.3063  -10.0533   30.0125 C   0  0  0  0  0  0  0  0  0  0  0  0
    1.8591   -6.8254   27.4685 N   0  0  0  0  0  0  0  0  0  0  0  0
   -0.2167  -12.1055   18.5568 C   0  0  0  0  0  0  0  0  0  0  0  0
   -2.0661  -10.6994   18.1916 C   0  0  0  0  0  0  0  0  0  0  0  0
    5.2703   -7.5691   27.1123 C   0  0  0  0  0  0  0  0  0  0  0  0
    1.6204   -9.9887   17.2935 C   0  0  0  0  0  0  0  0  0  0  0  0
    1.8931   -7.9265   16.2047 C   0  0  0  0  0  0  0  0  0  0  0  0
    2.4396   -9.0801   16.7132 C   0  0  0  0  0  0  0  0  0  0  0  0
   -0.2575   -8.6234   16.8582 C   0  0  0  0  0  0  0  0  0  0  0  0
    4.0614   -7.0367   27.0106 N   0  0  0  0  0  0  0  0  0  0  0  0
   -2.9133  -11.6279   18.7578 C   0  0  0  0  0  0  0  0  0  0  0  0
    4.5688  -10.1291   29.5758 C   0  0  0  0  0  0  0  0  0  0  0  0
    2.1008   -9.0410   29.1852 N   0  0  0  0  0  0  0  0  0  0  0  0
    3.4829  -10.5697   30.2091 N   0  0  0  0  0  0  0  0  0  0  0  0
   -0.3363   -6.1172   27.5628 C   0  0  0  0  0  0  0  0  0  0  0  0
    3.0331   -7.4400   27.6362 C   0  0  0  0  0  0  0  0  0  0  0  0
    5.4553   -8.5933   27.9644 C   0  0  0  0  0  0  0  0  0  0  0  0
   -2.3870  -12.8440   19.2512 C   0  0  0  0  0  0  0  0  0  0  0  0
    0.5331   -7.6964   16.2751 C   0  0  0  0  0  0  0  0  0  0  0  0
   -0.6740  -10.8737   18.0482 C   0  0  0  0  0  0  0  0  0  0  0  0
    5.6751  -10.5870   29.7637 O   0  0  0  0  0  0  0  0  0  0  0  0
    1.7612   -5.6483   26.7172 C   0  0  0  0  0  0  0  0  0  0  0  0
    0.2221   -9.8326   17.4055 C   0  0  0  0  0  0  0  0  0  0  0  0
    4.3850   -9.0730   28.6745 C   0  0  0  0  0  0  0  0  0  0  0  0
  1  7  4  0
  1 22  4  0
  2 17  4  0
  2 20  4  0
  2 28  4  0
  3  6  1  0
  3 19  1  0
  4 19  1  0
  4 26  1  0
  5 17  4  0
  5 18  4  0
  6 20  1  0
  6 26  1  0
  7 24  4  0
  8 15  4  0
  8 24  4  0
  9 14  4  0
  9 21  4  0
 10 12  4  0
 10 27  4  0
 11 12  4  0
 11 23  4  0
 13 23  4  0
 13 27  4  0
 14 20  4  0
 15 22  4  0
 16 18  4  0
 16 25  2  0
 16 28  4  0
 21 28  4  0
 24 27  1  0
M  END
$$$$

 Created by Python create_sdf_string function

 28 31  0  0  0  0  0  0  0  0999 V2000
   -1.0054  -13.0622   19.1198 C   0  0  0  0  0  0  0  0  0  0  0  0
    3.1478   -8.5360   28.5161 C   0  0  0  0  0  0  0  0  0  0  0  0
    0.5798   -7.1906   27.9330 C   0  0  0  0  0  0  0  0  0  0  0  0
    0.3978   -5.1561   26.6955 C   0  0  0  0  0  0  0  0  0  0  0  0
    2.3063  -10.0533   30.0125 C   0  0  0  0  0  0  0  0  0  0  0  0
    1.8591   -6.8254   27.4685 N   0  0  0  0  0  0  0  0  0  0  0  0
   -0.2167  -12.1055   18.5568 C   0  0  0  0  0  0  0  0  0  0  0  0
   -2.0661  -10.6994   18.1916 C   0  0  0  0  0  0  0  0  0  0  0  0
    5.2703   -7.5691   27.1123 C   0  0  0  0  0  0  0  0  0  0  0  0
    1.6204   -9.9887   17.2935 C   0  0  0  0  0  0  0  0  0  0  0  0
    1.8931   -7.9265   16.2047 C   0  0  0  0  0  0  0  0  0  0  0  0
    2.4396   -9.0801   16.7132 C   0  0  0  0  0  0  0  0  0  0  0  0
   -0.2575   -8.6234   16.8582 C   0  0  0  0  0  0  0  0  0  0  0  0
    4.0614   -7.0367   27.0106 N   0  0  0  0  0  0  0  0  0  0  0  0
   -2.9133  -11.6279   18.7578 C   0  0  0  0  0  0  0  0  0  0  0  0
    4.5688  -10.1291   29.5758 C   0  0  0  0  0  0  0  0  0  0  0  0
    2.1008   -9.0410   29.1852 N   0  0  0  0  0  0  0  0  0  0  0  0
    3.4829  -10.5697   30.2091 N   0  0  0  0  0  0  0  0  0  0  0  0
   -0.3363   -6.1172   27.5628 C   0  0  0  0  0  0  0  0  0  0  0  0
    3.0331   -7.4400   27.6362 C   0  0  0  0  0  0  0  0  0  0  0  0
    5.4553   -8.5933   27.9644 C   0  0  0  0  0  0  0  0  0  0  0  0
   -2.3870  -12.8440   19.2512 C   0  0  0  0  0  0  0  0  0  0  0  0
    0.5331   -7.6964   16.2751 C   0  0  0  0  0  0  0  0  0  0  0  0
   -0.6740  -10.8737   18.0482 C   0  0  0  0  0  0  0  0  0  0  0  0
    5.6751  -10.5870   29.7637 O   0  0  0  0  0  0  0  0  0  0  0  0
    1.7612   -5.6483   26.7172 C   0  0  0  0  0  0  0  0  0  0  0  0
    0.2221   -9.8326   17.4055 C   0  0  0  0  0  0  0  0  0  0  0  0
    4.3850   -9.0730   28.6745 C   0  0  0  0  0  0  0  0  0  0  0  0
  1  7  4  0
  1 22  4  0
  2 17  4  0
  2 20  4  0
  2 28  4  0
  3  6  1  0
  3 19  1  0
  4 19  1  0
  4 26  1  0
  5 17  4  0
  5 18  4  0
  6 20  1  0
  6 26  1  0
  7 24  4  0
  8 15  4  0
  8 24  4  0
  9 14  4  0
  9 21  4  0
 10 12  4  0
 10 27  4  0
 11 12  4  0
 11 23  4  0
 13 23  4  0
 13 27  4  0
 14 20  4  0
 15 22  4  0
 16 18  4  0
 16 25  2  0
 16 28  4  0
 21 28  4  0
 24 27  1  0
M  END
$$$$

 Created by Python create_sdf_string function

 28 31  0  0  0  0  0  0  0  0999 V2000
   -1.0054  -13.0622   19.1198 C   0  0  0  0  0  0  0  0  0  0  0  0
    3.1478   -8.5360   28.5161 C   0  0  0  0  0  0  0  0  0  0  0  0
    0.5798   -7.1906   27.9330 C   0  0  0  0  0  0  0  0  0  0  0  0
    0.3978   -5.1561   26.6955 C   0  0  0  0  0  0  0  0  0  0  0  0
    2.3063  -10.0533   30.0125 C   0  0  0  0  0  0  0  0  0  0  0  0
    1.8591   -6.8254   27.4685 N   0  0  0  0  0  0  0  0  0  0  0  0
   -0.2167  -12.1055   18.5568 C   0  0  0  0  0  0  0  0  0  0  0  0
   -2.0661  -10.6994   18.1916 C   0  0  0  0  0  0  0  0  0  0  0  0
    5.2703   -7.5691   27.1123 C   0  0  0  0  0  0  0  0  0  0  0  0
    1.6204   -9.9887   17.2935 C   0  0  0  0  0  0  0  0  0  0  0  0
    1.8931   -7.9265   16.2047 C   0  0  0  0  0  0  0  0  0  0  0  0
    2.4396   -9.0801   16.7132 C   0  0  0  0  0  0  0  0  0  0  0  0
   -0.2575   -8.6234   16.8582 C   0  0  0  0  0  0  0  0  0  0  0  0
    4.0614   -7.0367   27.0106 N   0  0  0  0  0  0  0  0  0  0  0  0
   -2.9133  -11.6279   18.7578 C   0  0  0  0  0  0  0  0  0  0  0  0
    4.5688  -10.1291   29.5758 C   0  0  0  0  0  0  0  0  0  0  0  0
    2.1008   -9.0410   29.1852 N   0  0  0  0  0  0  0  0  0  0  0  0
    3.4829  -10.5697   30.2091 N   0  0  0  0  0  0  0  0  0  0  0  0
   -0.3363   -6.1172   27.5628 C   0  0  0  0  0  0  0  0  0  0  0  0
    3.0331   -7.4400   27.6362 C   0  0  0  0  0  0  0  0  0  0  0  0
    5.4553   -8.5933   27.9644 C   0  0  0  0  0  0  0  0  0  0  0  0
   -2.3870  -12.8440   19.2512 C   0  0  0  0  0  0  0  0  0  0  0  0
    0.5331   -7.6964   16.2751 C   0  0  0  0  0  0  0  0  0  0  0  0
   -0.6740  -10.8737   18.0482 C   0  0  0  0  0  0  0  0  0  0  0  0
    5.6751  -10.5870   29.7637 O   0  0  0  0  0  0  0  0  0  0  0  0
    1.7612   -5.6483   26.7172 C   0  0  0  0  0  0  0  0  0  0  0  0
    0.2221   -9.8326   17.4055 C   0  0  0  0  0  0  0  0  0  0  0  0
    4.3850   -9.0730   28.6745 C   0  0  0  0  0  0  0  0  0  0  0  0
  1  7  4  0
  1 22  4  0
  2 17  4  0
  2 20  4  0
  2 28  4  0
  3  6  1  0
  3 19  1  0
  4 19  1  0
  4 26  1  0
  5 17  4  0
  5 18  4  0
  6 20  1  0
  6 26  1  0
  7 24  4  0
  8 15  4  0
  8 24  4  0
  9 14  4  0
  9 21  4  0
 10 12  4  0
 10 27  4  0
 11 12  4  0
 11 23  4  0
 13 23  4  0
 13 27  4  0
 14 20  4  0
 15 22  4  0
 16 18  4  0
 16 25  2  0
 16 28  4  0
 21 28  4  0
 24 27  1  0
M  END
$$$$

 Created by Python create_sdf_string function

 28 31  0  0  0  0  0  0  0  0999 V2000
   -1.0054  -13.0622   19.1198 C   0  0  0  0  0  0  0  0  0  0  0  0
    3.1478   -8.5360   28.5161 C   0  0  0  0  0  0  0  0  0  0  0  0
    0.5798   -7.1906   27.9330 C   0  0  0  0  0  0  0  0  0  0  0  0
    0.3978   -5.1561   26.6955 C   0  0  0  0  0  0  0  0  0  0  0  0
    2.3063  -10.0533   30.0125 C   0  0  0  0  0  0  0  0  0  0  0  0
    1.8591   -6.8254   27.4685 N   0  0  0  0  0  0  0  0  0  0  0  0
   -0.2167  -12.1055   18.5568 C   0  0  0  0  0  0  0  0  0  0  0  0
   -2.0661  -10.6994   18.1916 C   0  0  0  0  0  0  0  0  0  0  0  0
    5.2703   -7.5691   27.1123 C   0  0  0  0  0  0  0  0  0  0  0  0
    1.6204   -9.9887   17.2935 C   0  0  0  0  0  0  0  0  0  0  0  0
    1.8931   -7.9265   16.2047 C   0  0  0  0  0  0  0  0  0  0  0  0
    2.4396   -9.0801   16.7132 C   0  0  0  0  0  0  0  0  0  0  0  0
   -0.2575   -8.6234   16.8582 C   0  0  0  0  0  0  0  0  0  0  0  0
    4.0614   -7.0367   27.0106 N   0  0  0  0  0  0  0  0  0  0  0  0
   -2.9133  -11.6279   18.7578 C   0  0  0  0  0  0  0  0  0  0  0  0
    4.5688  -10.1291   29.5758 C   0  0  0  0  0  0  0  0  0  0  0  0
    2.1008   -9.0410   29.1852 N   0  0  0  0  0  0  0  0  0  0  0  0
    3.4829  -10.5697   30.2091 N   0  0  0  0  0  0  0  0  0  0  0  0
   -0.3363   -6.1172   27.5628 C   0  0  0  0  0  0  0  0  0  0  0  0
    3.0331   -7.4400   27.6362 C   0  0  0  0  0  0  0  0  0  0  0  0
    5.4553   -8.5933   27.9644 C   0  0  0  0  0  0  0  0  0  0  0  0
   -2.3870  -12.8440   19.2512 C   0  0  0  0  0  0  0  0  0  0  0  0
    0.5331   -7.6964   16.2751 C   0  0  0  0  0  0  0  0  0  0  0  0
   -0.6740  -10.8737   18.0482 C   0  0  0  0  0  0  0  0  0  0  0  0
    5.6751  -10.5870   29.7637 O   0  0  0  0  0  0  0  0  0  0  0  0
    1.7612   -5.6483   26.7172 C   0  0  0  0  0  0  0  0  0  0  0  0
    0.2221   -9.8326   17.4055 C   0  0  0  0  0  0  0  0  0  0  0  0
    4.3850   -9.0730   28.6745 C   0  0  0  0  0  0  0  0  0  0  0  0
  1  7  4  0
  1 22  4  0
  2 17  4  0
  2 20  4  0
  2 28  4  0
  3  6  1  0
  3 19  1  0
  4 19  1  0
  4 26  1  0
  5 17  4  0
  5 18  4  0
  6 20  1  0
  6 26  1  0
  7 24  4  0
  8 15  4  0
  8 24  4  0
  9 14  4  0
  9 21  4  0
 10 12  4  0
 10 27  4  0
 11 12  4  0
 11 23  4  0
 13 23  4  0
 13 27  4  0
 14 20  4  0
 15 22  4  0
 16 18  4  0
 16 25  2  0
 16 28  4  0
 21 28  4  0
 24 27  1  0
M  END
$$$$

 Created by Python create_sdf_string function

 28 31  0  0  0  0  0  0  0  0999 V2000
   -1.0054  -13.0622   19.1198 C   0  0  0  0  0  0  0  0  0  0  0  0
    3.1478   -8.5360   28.5161 C   0  0  0  0  0  0  0  0  0  0  0  0
    0.5798   -7.1906   27.9330 C   0  0  0  0  0  0  0  0  0  0  0  0
    0.3978   -5.1561   26.6955 C   0  0  0  0  0  0  0  0  0  0  0  0
    2.3063  -10.0533   30.0125 C   0  0  0  0  0  0  0  0  0  0  0  0
    1.8591   -6.8254   27.4685 N   0  0  0  0  0  0  0  0  0  0  0  0
   -0.2167  -12.1055   18.5568 C   0  0  0  0  0  0  0  0  0  0  0  0
   -2.0661  -10.6994   18.1916 C   0  0  0  0  0  0  0  0  0  0  0  0
    5.2703   -7.5691   27.1123 C   0  0  0  0  0  0  0  0  0  0  0  0
    1.6204   -9.9887   17.2935 C   0  0  0  0  0  0  0  0  0  0  0  0
    1.8931   -7.9265   16.2047 C   0  0  0  0  0  0  0  0  0  0  0  0
    2.4396   -9.0801   16.7132 C   0  0  0  0  0  0  0  0  0  0  0  0
   -0.2575   -8.6234   16.8582 C   0  0  0  0  0  0  0  0  0  0  0  0
    4.0614   -7.0367   27.0106 N   0  0  0  0  0  0  0  0  0  0  0  0
   -2.9133  -11.6279   18.7578 C   0  0  0  0  0  0  0  0  0  0  0  0
    4.5688  -10.1291   29.5758 C   0  0  0  0  0  0  0  0  0  0  0  0
    2.1008   -9.0410   29.1852 N   0  0  0  0  0  0  0  0  0  0  0  0
    3.4829  -10.5697   30.2091 N   0  0  0  0  0  0  0  0  0  0  0  0
   -0.3363   -6.1172   27.5628 C   0  0  0  0  0  0  0  0  0  0  0  0
    3.0331   -7.4400   27.6362 C   0  0  0  0  0  0  0  0  0  0  0  0
    5.4553   -8.5933   27.9644 C   0  0  0  0  0  0  0  0  0  0  0  0
   -2.3870  -12.8440   19.2512 C   0  0  0  0  0  0  0  0  0  0  0  0
    0.5331   -7.6964   16.2751 C   0  0  0  0  0  0  0  0  0  0  0  0
   -0.6740  -10.8737   18.0482 C   0  0  0  0  0  0  0  0  0  0  0  0
    5.6751  -10.5870   29.7637 O   0  0  0  0  0  0  0  0  0  0  0  0
    1.7612   -5.6483   26.7172 C   0  0  0  0  0  0  0  0  0  0  0  0
    0.2221   -9.8326   17.4055 C   0  0  0  0  0  0  0  0  0  0  0  0
    4.3850   -9.0730   28.6745 C   0  0  0  0  0  0  0  0  0  0  0  0
  1  7  4  0
  1 22  4  0
  2 17  4  0
  2 20  4  0
  2 28  4  0
  3  6  1  0
  3 19  1  0
  4 19  1  0
  4 26  1  0
  5 17  4  0
  5 18  4  0
  6 20  1  0
  6 26  1  0
  7 24  4  0
  8 15  4  0
  8 24  4  0
  9 14  4  0
  9 21  4  0
 10 12  4  0
 10 27  4  0
 11 12  4  0
 11 23  4  0
 13 23  4  0
 13 27  4  0
 14 20  4  0
 15 22  4  0
 16 18  4  0
 16 25  2  0
 16 28  4  0
 21 28  4  0
 24 27  1  0
M  END
$$$$

 Created by Python create_sdf_string function

 28 31  0  0  0  0  0  0  0  0999 V2000
   -1.0054  -13.0622   19.1198 C   0  0  0  0  0  0  0  0  0  0  0  0
    3.1478   -8.5360   28.5161 C   0  0  0  0  0  0  0  0  0  0  0  0
    0.5798   -7.1906   27.9330 C   0  0  0  0  0  0  0  0  0  0  0  0
    0.3978   -5.1561   26.6955 C   0  0  0  0  0  0  0  0  0  0  0  0
    2.3063  -10.0533   30.0125 C   0  0  0  0  0  0  0  0  0  0  0  0
    1.8591   -6.8254   27.4685 N   0  0  0  0  0  0  0  0  0  0  0  0
   -0.2167  -12.1055   18.5568 C   0  0  0  0  0  0  0  0  0  0  0  0
   -2.0661  -10.6994   18.1916 C   0  0  0  0  0  0  0  0  0  0  0  0
    5.2703   -7.5691   27.1123 C   0  0  0  0  0  0  0  0  0  0  0  0
    1.6204   -9.9887   17.2935 C   0  0  0  0  0  0  0  0  0  0  0  0
    1.8931   -7.9265   16.2047 C   0  0  0  0  0  0  0  0  0  0  0  0
    2.4396   -9.0801   16.7132 C   0  0  0  0  0  0  0  0  0  0  0  0
   -0.2575   -8.6234   16.8582 C   0  0  0  0  0  0  0  0  0  0  0  0
    4.0614   -7.0367   27.0106 N   0  0  0  0  0  0  0  0  0  0  0  0
   -2.9133  -11.6279   18.7578 C   0  0  0  0  0  0  0  0  0  0  0  0
    4.5688  -10.1291   29.5758 C   0  0  0  0  0  0  0  0  0  0  0  0
    2.1008   -9.0410   29.1852 N   0  0  0  0  0  0  0  0  0  0  0  0
    3.4829  -10.5697   30.2091 N   0  0  0  0  0  0  0  0  0  0  0  0
   -0.3363   -6.1172   27.5628 C   0  0  0  0  0  0  0  0  0  0  0  0
    3.0331   -7.4400   27.6362 C   0  0  0  0  0  0  0  0  0  0  0  0
    5.4553   -8.5933   27.9644 C   0  0  0  0  0  0  0  0  0  0  0  0
   -2.3870  -12.8440   19.2512 C   0  0  0  0  0  0  0  0  0  0  0  0
    0.5331   -7.6964   16.2751 C   0  0  0  0  0  0  0  0  0  0  0  0
   -0.6740  -10.8737   18.0482 C   0  0  0  0  0  0  0  0  0  0  0  0
    5.6751  -10.5870   29.7637 O   0  0  0  0  0  0  0  0  0  0  0  0
    1.7612   -5.6483   26.7172 C   0  0  0  0  0  0  0  0  0  0  0  0
    0.2221   -9.8326   17.4055 C   0  0  0  0  0  0  0  0  0  0  0  0
    4.3850   -9.0730   28.6745 C   0  0  0  0  0  0  0  0  0  0  0  0
  1  7  4  0
  1 22  4  0
  2 17  4  0
  2 20  4  0
  2 28  4  0
  3  6  1  0
  3 19  1  0
  4 19  1  0
  4 26  1  0
  5 17  4  0
  5 18  4  0
  6 20  1  0
  6 26  1  0
  7 24  4  0
  8 15  4  0
  8 24  4  0
  9 14  4  0
  9 21  4  0
 10 12  4  0
 10 27  4  0
 11 12  4  0
 11 23  4  0
 13 23  4  0
 13 27  4  0
 14 20  4  0
 15 22  4  0
 16 18  4  0
 16 25  2  0
 16 28  4  0
 21 28  4  0
 24 27  1  0
M  END
$$$$

 Created by Python create_sdf_string function

 28 31  0  0  0  0  0  0  0  0999 V2000
   -1.0054  -13.0622   19.1198 C   0  0  0  0  0  0  0  0  0  0  0  0
    3.1478   -8.5360   28.5161 C   0  0  0  0  0  0  0  0  0  0  0  0
    0.5798   -7.1906   27.9330 C   0  0  0  0  0  0  0  0  0  0  0  0
    0.3978   -5.1561   26.6955 C   0  0  0  0  0  0  0  0  0  0  0  0
    2.3063  -10.0533   30.0125 C   0  0  0  0  0  0  0  0  0  0  0  0
    1.8591   -6.8254   27.4685 N   0  0  0  0  0  0  0  0  0  0  0  0
   -0.2167  -12.1055   18.5568 C   0  0  0  0  0  0  0  0  0  0  0  0
   -2.0661  -10.6994   18.1916 C   0  0  0  0  0  0  0  0  0  0  0  0
    5.2703   -7.5691   27.1123 C   0  0  0  0  0  0  0  0  0  0  0  0
    1.6204   -9.9887   17.2935 C   0  0  0  0  0  0  0  0  0  0  0  0
    1.8931   -7.9265   16.2047 C   0  0  0  0  0  0  0  0  0  0  0  0
    2.4396   -9.0801   16.7132 C   0  0  0  0  0  0  0  0  0  0  0  0
   -0.2575   -8.6234   16.8582 C   0  0  0  0  0  0  0  0  0  0  0  0
    4.0614   -7.0367   27.0106 N   0  0  0  0  0  0  0  0  0  0  0  0
   -2.9133  -11.6279   18.7578 C   0  0  0  0  0  0  0  0  0  0  0  0
    4.5688  -10.1291   29.5758 C   0  0  0  0  0  0  0  0  0  0  0  0
    2.1008   -9.0410   29.1852 N   0  0  0  0  0  0  0  0  0  0  0  0
    3.4829  -10.5697   30.2091 N   0  0  0  0  0  0  0  0  0  0  0  0
   -0.3363   -6.1172   27.5628 C   0  0  0  0  0  0  0  0  0  0  0  0
    3.0331   -7.4400   27.6362 C   0  0  0  0  0  0  0  0  0  0  0  0
    5.4553   -8.5933   27.9644 C   0  0  0  0  0  0  0  0  0  0  0  0
   -2.3870  -12.8440   19.2512 C   0  0  0  0  0  0  0  0  0  0  0  0
    0.5331   -7.6964   16.2751 C   0  0  0  0  0  0  0  0  0  0  0  0
   -0.6740  -10.8737   18.0482 C   0  0  0  0  0  0  0  0  0  0  0  0
    5.6751  -10.5870   29.7637 O   0  0  0  0  0  0  0  0  0  0  0  0
    1.7612   -5.6483   26.7172 C   0  0  0  0  0  0  0  0  0  0  0  0
    0.2221   -9.8326   17.4055 C   0  0  0  0  0  0  0  0  0  0  0  0
    4.3850   -9.0730   28.6745 C   0  0  0  0  0  0  0  0  0  0  0  0
  1  7  4  0
  1 22  4  0
  2 17  4  0
  2 20  4  0
  2 28  4  0
  3  6  1  0
  3 19  1  0
  4 19  1  0
  4 26  1  0
  5 17  4  0
  5 18  4  0
  6 20  1  0
  6 26  1  0
  7 24  4  0
  8 15  4  0
  8 24  4  0
  9 14  4  0
  9 21  4  0
 10 12  4  0
 10 27  4  0
 11 12  4  0
 11 23  4  0
 13 23  4  0
 13 27  4  0
 14 20  4  0
 15 22  4  0
 16 18  4  0
 16 25  2  0
 16 28  4  0
 21 28  4  0
 24 27  1  0
M  END
$$$$

 Created by Python create_sdf_string function

 28 31  0  0  0  0  0  0  0  0999 V2000
   -1.0054  -13.0622   19.1198 C   0  0  0  0  0  0  0  0  0  0  0  0
    3.1478   -8.5360   28.5161 C   0  0  0  0  0  0  0  0  0  0  0  0
    0.5798   -7.1906   27.9330 C   0  0  0  0  0  0  0  0  0  0  0  0
    0.3978   -5.1561   26.6955 C   0  0  0  0  0  0  0  0  0  0  0  0
    2.3063  -10.0533   30.0125 C   0  0  0  0  0  0  0  0  0  0  0  0
    1.8591   -6.8254   27.4685 N   0  0  0  0  0  0  0  0  0  0  0  0
   -0.2167  -12.1055   18.5568 C   0  0  0  0  0  0  0  0  0  0  0  0
   -2.0661  -10.6994   18.1916 C   0  0  0  0  0  0  0  0  0  0  0  0
    5.2703   -7.5691   27.1123 C   0  0  0  0  0  0  0  0  0  0  0  0
    1.6204   -9.9887   17.2935 C   0  0  0  0  0  0  0  0  0  0  0  0
    1.8931   -7.9265   16.2047 C   0  0  0  0  0  0  0  0  0  0  0  0
    2.4396   -9.0801   16.7132 C   0  0  0  0  0  0  0  0  0  0  0  0
   -0.2575   -8.6234   16.8582 C   0  0  0  0  0  0  0  0  0  0  0  0
    4.0614   -7.0367   27.0106 N   0  0  0  0  0  0  0  0  0  0  0  0
   -2.9133  -11.6279   18.7578 C   0  0  0  0  0  0  0  0  0  0  0  0
    4.5688  -10.1291   29.5758 C   0  0  0  0  0  0  0  0  0  0  0  0
    2.1008   -9.0410   29.1852 N   0  0  0  0  0  0  0  0  0  0  0  0
    3.4829  -10.5697   30.2091 N   0  0  0  0  0  0  0  0  0  0  0  0
   -0.3363   -6.1172   27.5628 C   0  0  0  0  0  0  0  0  0  0  0  0
    3.0331   -7.4400   27.6362 C   0  0  0  0  0  0  0  0  0  0  0  0
    5.4553   -8.5933   27.9644 C   0  0  0  0  0  0  0  0  0  0  0  0
   -2.3870  -12.8440   19.2512 C   0  0  0  0  0  0  0  0  0  0  0  0
    0.5331   -7.6964   16.2751 C   0  0  0  0  0  0  0  0  0  0  0  0
   -0.6740  -10.8737   18.0482 C   0  0  0  0  0  0  0  0  0  0  0  0
    5.6751  -10.5870   29.7637 O   0  0  0  0  0  0  0  0  0  0  0  0
    1.7612   -5.6483   26.7172 C   0  0  0  0  0  0  0  0  0  0  0  0
    0.2221   -9.8326   17.4055 C   0  0  0  0  0  0  0  0  0  0  0  0
    4.3850   -9.0730   28.6745 C   0  0  0  0  0  0  0  0  0  0  0  0
  1  7  4  0
  1 22  4  0
  2 17  4  0
  2 20  4  0
  2 28  4  0
  3  6  1  0
  3 19  1  0
  4 19  1  0
  4 26  1  0
  5 17  4  0
  5 18  4  0
  6 20  1  0
  6 26  1  0
  7 24  4  0
  8 15  4  0
  8 24  4  0
  9 14  4  0
  9 21  4  0
 10 12  4  0
 10 27  4  0
 11 12  4  0
 11 23  4  0
 13 23  4  0
 13 27  4  0
 14 20  4  0
 15 22  4  0
 16 18  4  0
 16 25  2  0
 16 28  4  0
 21 28  4  0
 24 27  1  0
M  END
$$$$

 Created by Python create_sdf_string function

 28 31  0  0  0  0  0  0  0  0999 V2000
   -1.0054  -13.0622   19.1198 C   0  0  0  0  0  0  0  0  0  0  0  0
    3.1478   -8.5360   28.5161 C   0  0  0  0  0  0  0  0  0  0  0  0
    0.5798   -7.1906   27.9330 C   0  0  0  0  0  0  0  0  0  0  0  0
    0.3978   -5.1561   26.6955 C   0  0  0  0  0  0  0  0  0  0  0  0
    2.3063  -10.0533   30.0125 C   0  0  0  0  0  0  0  0  0  0  0  0
    1.8591   -6.8254   27.4685 N   0  0  0  0  0  0  0  0  0  0  0  0
   -0.2167  -12.1055   18.5568 C   0  0  0  0  0  0  0  0  0  0  0  0
   -2.0661  -10.6994   18.1916 C   0  0  0  0  0  0  0  0  0  0  0  0
    5.2703   -7.5691   27.1123 C   0  0  0  0  0  0  0  0  0  0  0  0
    1.6204   -9.9887   17.2935 C   0  0  0  0  0  0  0  0  0  0  0  0
    1.8931   -7.9265   16.2047 C   0  0  0  0  0  0  0  0  0  0  0  0
    2.4396   -9.0801   16.7132 C   0  0  0  0  0  0  0  0  0  0  0  0
   -0.2575   -8.6234   16.8582 C   0  0  0  0  0  0  0  0  0  0  0  0
    4.0614   -7.0367   27.0106 N   0  0  0  0  0  0  0  0  0  0  0  0
   -2.9133  -11.6279   18.7578 C   0  0  0  0  0  0  0  0  0  0  0  0
    4.5688  -10.1291   29.5758 C   0  0  0  0  0  0  0  0  0  0  0  0
    2.1008   -9.0410   29.1852 N   0  0  0  0  0  0  0  0  0  0  0  0
    3.4829  -10.5697   30.2091 N   0  0  0  0  0  0  0  0  0  0  0  0
   -0.3363   -6.1172   27.5628 C   0  0  0  0  0  0  0  0  0  0  0  0
    3.0331   -7.4400   27.6362 C   0  0  0  0  0  0  0  0  0  0  0  0
    5.4553   -8.5933   27.9644 C   0  0  0  0  0  0  0  0  0  0  0  0
   -2.3870  -12.8440   19.2512 C   0  0  0  0  0  0  0  0  0  0  0  0
    0.5331   -7.6964   16.2751 C   0  0  0  0  0  0  0  0  0  0  0  0
   -0.6740  -10.8737   18.0482 C   0  0  0  0  0  0  0  0  0  0  0  0
    5.6751  -10.5870   29.7637 O   0  0  0  0  0  0  0  0  0  0  0  0
    1.7612   -5.6483   26.7172 C   0  0  0  0  0  0  0  0  0  0  0  0
    0.2221   -9.8326   17.4055 C   0  0  0  0  0  0  0  0  0  0  0  0
    4.3850   -9.0730   28.6745 C   0  0  0  0  0  0  0  0  0  0  0  0
  1  7  4  0
  1 22  4  0
  2 17  4  0
  2 20  4  0
  2 28  4  0
  3  6  1  0
  3 19  1  0
  4 19  1  0
  4 26  1  0
  5 17  4  0
  5 18  4  0
  6 20  1  0
  6 26  1  0
  7 24  4  0
  8 15  4  0
  8 24  4  0
  9 14  4  0
  9 21  4  0
 10 12  4  0
 10 27  4  0
 11 12  4  0
 11 23  4  0
 13 23  4  0
 13 27  4  0
 14 20  4  0
 15 22  4  0
 16 18  4  0
 16 25  2  0
 16 28  4  0
 21 28  4  0
 24 27  1  0
M  END
$$$$

 Created by Python create_sdf_string function

 28 31  0  0  0  0  0  0  0  0999 V2000
   -1.0054  -13.0622   19.1198 C   0  0  0  0  0  0  0  0  0  0  0  0
    3.1478   -8.5360   28.5161 C   0  0  0  0  0  0  0  0  0  0  0  0
    0.5798   -7.1906   27.9330 C   0  0  0  0  0  0  0  0  0  0  0  0
    0.3978   -5.1561   26.6955 C   0  0  0  0  0  0  0  0  0  0  0  0
    2.3063  -10.0533   30.0125 C   0  0  0  0  0  0  0  0  0  0  0  0
    1.8591   -6.8254   27.4685 N   0  0  0  0  0  0  0  0  0  0  0  0
   -0.2167  -12.1055   18.5568 C   0  0  0  0  0  0  0  0  0  0  0  0
   -2.0661  -10.6994   18.1916 C   0  0  0  0  0  0  0  0  0  0  0  0
    5.2703   -7.5691   27.1123 C   0  0  0  0  0  0  0  0  0  0  0  0
    1.6204   -9.9887   17.2935 C   0  0  0  0  0  0  0  0  0  0  0  0
    1.8931   -7.9265   16.2047 C   0  0  0  0  0  0  0  0  0  0  0  0
    2.4396   -9.0801   16.7132 C   0  0  0  0  0  0  0  0  0  0  0  0
   -0.2575   -8.6234   16.8582 C   0  0  0  0  0  0  0  0  0  0  0  0
    4.0614   -7.0367   27.0106 N   0  0  0  0  0  0  0  0  0  0  0  0
   -2.9133  -11.6279   18.7578 C   0  0  0  0  0  0  0  0  0  0  0  0
    4.5688  -10.1291   29.5758 C   0  0  0  0  0  0  0  0  0  0  0  0
    2.1008   -9.0410   29.1852 N   0  0  0  0  0  0  0  0  0  0  0  0
    3.4829  -10.5697   30.2091 N   0  0  0  0  0  0  0  0  0  0  0  0
   -0.3363   -6.1172   27.5628 C   0  0  0  0  0  0  0  0  0  0  0  0
    3.0331   -7.4400   27.6362 C   0  0  0  0  0  0  0  0  0  0  0  0
    5.4553   -8.5933   27.9644 C   0  0  0  0  0  0  0  0  0  0  0  0
   -2.3870  -12.8440   19.2512 C   0  0  0  0  0  0  0  0  0  0  0  0
    0.5331   -7.6964   16.2751 C   0  0  0  0  0  0  0  0  0  0  0  0
   -0.6740  -10.8737   18.0482 C   0  0  0  0  0  0  0  0  0  0  0  0
    5.6751  -10.5870   29.7637 O   0  0  0  0  0  0  0  0  0  0  0  0
    1.7612   -5.6483   26.7172 C   0  0  0  0  0  0  0  0  0  0  0  0
    0.2221   -9.8326   17.4055 C   0  0  0  0  0  0  0  0  0  0  0  0
    4.3850   -9.0730   28.6745 C   0  0  0  0  0  0  0  0  0  0  0  0
  1  7  4  0
  1 22  4  0
  2 17  4  0
  2 20  4  0
  2 28  4  0
  3  6  1  0
  3 19  1  0
  4 19  1  0
  4 26  1  0
  5 17  4  0
  5 18  4  0
  6 20  1  0
  6 26  1  0
  7 24  4  0
  8 15  4  0
  8 24  4  0
  9 14  4  0
  9 21  4  0
 10 12  4  0
 10 27  4  0
 11 12  4  0
 11 23  4  0
 13 23  4  0
 13 27  4  0
 14 20  4  0
 15 22  4  0
 16 18  4  0
 16 25  2  0
 16 28  4  0
 21 28  4  0
 24 27  1  0
M  END
$$$$

 Created by Python create_sdf_string function

 28 31  0  0  0  0  0  0  0  0999 V2000
   -1.0054  -13.0622   19.1198 C   0  0  0  0  0  0  0  0  0  0  0  0
    3.1478   -8.5360   28.5161 C   0  0  0  0  0  0  0  0  0  0  0  0
    0.5798   -7.1906   27.9330 C   0  0  0  0  0  0  0  0  0  0  0  0
    0.3978   -5.1561   26.6955 C   0  0  0  0  0  0  0  0  0  0  0  0
    2.3063  -10.0533   30.0125 C   0  0  0  0  0  0  0  0  0  0  0  0
    1.8591   -6.8254   27.4685 N   0  0  0  0  0  0  0  0  0  0  0  0
   -0.2167  -12.1055   18.5568 C   0  0  0  0  0  0  0  0  0  0  0  0
   -2.0661  -10.6994   18.1916 C   0  0  0  0  0  0  0  0  0  0  0  0
    5.2703   -7.5691   27.1123 C   0  0  0  0  0  0  0  0  0  0  0  0
    1.6204   -9.9887   17.2935 C   0  0  0  0  0  0  0  0  0  0  0  0
    1.8931   -7.9265   16.2047 C   0  0  0  0  0  0  0  0  0  0  0  0
    2.4396   -9.0801   16.7132 C   0  0  0  0  0  0  0  0  0  0  0  0
   -0.2575   -8.6234   16.8582 C   0  0  0  0  0  0  0  0  0  0  0  0
    4.0614   -7.0367   27.0106 N   0  0  0  0  0  0  0  0  0  0  0  0
   -2.9133  -11.6279   18.7578 C   0  0  0  0  0  0  0  0  0  0  0  0
    4.5688  -10.1291   29.5758 C   0  0  0  0  0  0  0  0  0  0  0  0
    2.1008   -9.0410   29.1852 N   0  0  0  0  0  0  0  0  0  0  0  0
    3.4829  -10.5697   30.2091 N   0  0  0  0  0  0  0  0  0  0  0  0
   -0.3363   -6.1172   27.5628 C   0  0  0  0  0  0  0  0  0  0  0  0
    3.0331   -7.4400   27.6362 C   0  0  0  0  0  0  0  0  0  0  0  0
    5.4553   -8.5933   27.9644 C   0  0  0  0  0  0  0  0  0  0  0  0
   -2.3870  -12.8440   19.2512 C   0  0  0  0  0  0  0  0  0  0  0  0
    0.5331   -7.6964   16.2751 C   0  0  0  0  0  0  0  0  0  0  0  0
   -0.6740  -10.8737   18.0482 C   0  0  0  0  0  0  0  0  0  0  0  0
    5.6751  -10.5870   29.7637 O   0  0  0  0  0  0  0  0  0  0  0  0
    1.7612   -5.6483   26.7172 C   0  0  0  0  0  0  0  0  0  0  0  0
    0.2221   -9.8326   17.4055 C   0  0  0  0  0  0  0  0  0  0  0  0
    4.3850   -9.0730   28.6745 C   0  0  0  0  0  0  0  0  0  0  0  0
  1  7  4  0
  1 22  4  0
  2 17  4  0
  2 20  4  0
  2 28  4  0
  3  6  1  0
  3 19  1  0
  4 19  1  0
  4 26  1  0
  5 17  4  0
  5 18  4  0
  6 20  1  0
  6 26  1  0
  7 24  4  0
  8 15  4  0
  8 24  4  0
  9 14  4  0
  9 21  4  0
 10 12  4  0
 10 27  4  0
 11 12  4  0
 11 23  4  0
 13 23  4  0
 13 27  4  0
 14 20  4  0
 15 22  4  0
 16 18  4  0
 16 25  2  0
 16 28  4  0
 21 28  4  0
 24 27  1  0
M  END
$$$$

 Created by Python create_sdf_string function

 28 31  0  0  0  0  0  0  0  0999 V2000
   -1.0054  -13.0622   19.1198 C   0  0  0  0  0  0  0  0  0  0  0  0
    3.1478   -8.5360   28.5161 C   0  0  0  0  0  0  0  0  0  0  0  0
    0.5798   -7.1906   27.9330 C   0  0  0  0  0  0  0  0  0  0  0  0
    0.3978   -5.1561   26.6955 C   0  0  0  0  0  0  0  0  0  0  0  0
    2.3063  -10.0533   30.0125 C   0  0  0  0  0  0  0  0  0  0  0  0
    1.8591   -6.8254   27.4685 N   0  0  0  0  0  0  0  0  0  0  0  0
   -0.2167  -12.1055   18.5568 C   0  0  0  0  0  0  0  0  0  0  0  0
   -2.0661  -10.6994   18.1916 C   0  0  0  0  0  0  0  0  0  0  0  0
    5.2703   -7.5691   27.1123 C   0  0  0  0  0  0  0  0  0  0  0  0
    1.6204   -9.9887   17.2935 C   0  0  0  0  0  0  0  0  0  0  0  0
    1.8931   -7.9265   16.2047 C   0  0  0  0  0  0  0  0  0  0  0  0
    2.4396   -9.0801   16.7132 C   0  0  0  0  0  0  0  0  0  0  0  0
   -0.2575   -8.6234   16.8582 C   0  0  0  0  0  0  0  0  0  0  0  0
    4.0614   -7.0367   27.0106 N   0  0  0  0  0  0  0  0  0  0  0  0
   -2.9133  -11.6279   18.7578 C   0  0  0  0  0  0  0  0  0  0  0  0
    4.5688  -10.1291   29.5758 C   0  0  0  0  0  0  0  0  0  0  0  0
    2.1008   -9.0410   29.1852 N   0  0  0  0  0  0  0  0  0  0  0  0
    3.4829  -10.5697   30.2091 N   0  0  0  0  0  0  0  0  0  0  0  0
   -0.3363   -6.1172   27.5628 C   0  0  0  0  0  0  0  0  0  0  0  0
    3.0331   -7.4400   27.6362 C   0  0  0  0  0  0  0  0  0  0  0  0
    5.4553   -8.5933   27.9644 C   0  0  0  0  0  0  0  0  0  0  0  0
   -2.3870  -12.8440   19.2512 C   0  0  0  0  0  0  0  0  0  0  0  0
    0.5331   -7.6964   16.2751 C   0  0  0  0  0  0  0  0  0  0  0  0
   -0.6740  -10.8737   18.0482 C   0  0  0  0  0  0  0  0  0  0  0  0
    5.6751  -10.5870   29.7637 O   0  0  0  0  0  0  0  0  0  0  0  0
    1.7612   -5.6483   26.7172 C   0  0  0  0  0  0  0  0  0  0  0  0
    0.2221   -9.8326   17.4055 C   0  0  0  0  0  0  0  0  0  0  0  0
    4.3850   -9.0730   28.6745 C   0  0  0  0  0  0  0  0  0  0  0  0
  1  7  4  0
  1 22  4  0
  2 17  4  0
  2 20  4  0
  2 28  4  0
  3  6  1  0
  3 19  1  0
  4 19  1  0
  4 26  1  0
  5 17  4  0
  5 18  4  0
  6 20  1  0
  6 26  1  0
  7 24  4  0
  8 15  4  0
  8 24  4  0
  9 14  4  0
  9 21  4  0
 10 12  4  0
 10 27  4  0
 11 12  4  0
 11 23  4  0
 13 23  4  0
 13 27  4  0
 14 20  4  0
 15 22  4  0
 16 18  4  0
 16 25  2  0
 16 28  4  0
 21 28  4  0
 24 27  1  0
M  END
$$$$

 Created by Python create_sdf_string function

 28 31  0  0  0  0  0  0  0  0999 V2000
   -1.0054  -13.0622   19.1198 C   0  0  0  0  0  0  0  0  0  0  0  0
    3.1478   -8.5360   28.5161 C   0  0  0  0  0  0  0  0  0  0  0  0
    0.5798   -7.1906   27.9330 C   0  0  0  0  0  0  0  0  0  0  0  0
    0.3978   -5.1561   26.6955 C   0  0  0  0  0  0  0  0  0  0  0  0
    2.3063  -10.0533   30.0125 C   0  0  0  0  0  0  0  0  0  0  0  0
    1.8591   -6.8254   27.4685 N   0  0  0  0  0  0  0  0  0  0  0  0
   -0.2167  -12.1055   18.5568 C   0  0  0  0  0  0  0  0  0  0  0  0
   -2.0661  -10.6994   18.1916 C   0  0  0  0  0  0  0  0  0  0  0  0
    5.2703   -7.5691   27.1123 C   0  0  0  0  0  0  0  0  0  0  0  0
    1.6204   -9.9887   17.2935 C   0  0  0  0  0  0  0  0  0  0  0  0
    1.8931   -7.9265   16.2047 C   0  0  0  0  0  0  0  0  0  0  0  0
    2.4396   -9.0801   16.7132 C   0  0  0  0  0  0  0  0  0  0  0  0
   -0.2575   -8.6234   16.8582 C   0  0  0  0  0  0  0  0  0  0  0  0
    4.0614   -7.0367   27.0106 N   0  0  0  0  0  0  0  0  0  0  0  0
   -2.9133  -11.6279   18.7578 C   0  0  0  0  0  0  0  0  0  0  0  0
    4.5688  -10.1291   29.5758 C   0  0  0  0  0  0  0  0  0  0  0  0
    2.1008   -9.0410   29.1852 N   0  0  0  0  0  0  0  0  0  0  0  0
    3.4829  -10.5697   30.2091 N   0  0  0  0  0  0  0  0  0  0  0  0
   -0.3363   -6.1172   27.5628 C   0  0  0  0  0  0  0  0  0  0  0  0
    3.0331   -7.4400   27.6362 C   0  0  0  0  0  0  0  0  0  0  0  0
    5.4553   -8.5933   27.9644 C   0  0  0  0  0  0  0  0  0  0  0  0
   -2.3870  -12.8440   19.2512 C   0  0  0  0  0  0  0  0  0  0  0  0
    0.5331   -7.6964   16.2751 C   0  0  0  0  0  0  0  0  0  0  0  0
   -0.6740  -10.8737   18.0482 C   0  0  0  0  0  0  0  0  0  0  0  0
    5.6751  -10.5870   29.7637 O   0  0  0  0  0  0  0  0  0  0  0  0
    1.7612   -5.6483   26.7172 C   0  0  0  0  0  0  0  0  0  0  0  0
    0.2221   -9.8326   17.4055 C   0  0  0  0  0  0  0  0  0  0  0  0
    4.3850   -9.0730   28.6745 C   0  0  0  0  0  0  0  0  0  0  0  0
  1  7  4  0
  1 22  4  0
  2 17  4  0
  2 20  4  0
  2 28  4  0
  3  6  1  0
  3 19  1  0
  4 19  1  0
  4 26  1  0
  5 17  4  0
  5 18  4  0
  6 20  1  0
  6 26  1  0
  7 24  4  0
  8 15  4  0
  8 24  4  0
  9 14  4  0
  9 21  4  0
 10 12  4  0
 10 27  4  0
 11 12  4  0
 11 23  4  0
 13 23  4  0
 13 27  4  0
 14 20  4  0
 15 22  4  0
 16 18  4  0
 16 25  2  0
 16 28  4  0
 21 28  4  0
 24 27  1  0
M  END
$$$$

 Created by Python create_sdf_string function

 28 31  0  0  0  0  0  0  0  0999 V2000
   -1.0054  -13.0622   19.1198 C   0  0  0  0  0  0  0  0  0  0  0  0
    3.1478   -8.5360   28.5161 C   0  0  0  0  0  0  0  0  0  0  0  0
    0.5798   -7.1906   27.9330 C   0  0  0  0  0  0  0  0  0  0  0  0
    0.3978   -5.1561   26.6955 C   0  0  0  0  0  0  0  0  0  0  0  0
    2.3063  -10.0533   30.0125 C   0  0  0  0  0  0  0  0  0  0  0  0
    1.8591   -6.8254   27.4685 N   0  0  0  0  0  0  0  0  0  0  0  0
   -0.2167  -12.1055   18.5568 C   0  0  0  0  0  0  0  0  0  0  0  0
   -2.0661  -10.6994   18.1916 C   0  0  0  0  0  0  0  0  0  0  0  0
    5.2703   -7.5691   27.1123 C   0  0  0  0  0  0  0  0  0  0  0  0
    1.6204   -9.9887   17.2935 C   0  0  0  0  0  0  0  0  0  0  0  0
    1.8931   -7.9265   16.2047 C   0  0  0  0  0  0  0  0  0  0  0  0
    2.4396   -9.0801   16.7132 C   0  0  0  0  0  0  0  0  0  0  0  0
   -0.2575   -8.6234   16.8582 C   0  0  0  0  0  0  0  0  0  0  0  0
    4.0614   -7.0367   27.0106 N   0  0  0  0  0  0  0  0  0  0  0  0
   -2.9133  -11.6279   18.7578 C   0  0  0  0  0  0  0  0  0  0  0  0
    4.5688  -10.1291   29.5758 C   0  0  0  0  0  0  0  0  0  0  0  0
    2.1008   -9.0410   29.1852 N   0  0  0  0  0  0  0  0  0  0  0  0
    3.4829  -10.5697   30.2091 N   0  0  0  0  0  0  0  0  0  0  0  0
   -0.3363   -6.1172   27.5628 C   0  0  0  0  0  0  0  0  0  0  0  0
    3.0331   -7.4400   27.6362 C   0  0  0  0  0  0  0  0  0  0  0  0
    5.4553   -8.5933   27.9644 C   0  0  0  0  0  0  0  0  0  0  0  0
   -2.3870  -12.8440   19.2512 C   0  0  0  0  0  0  0  0  0  0  0  0
    0.5331   -7.6964   16.2751 C   0  0  0  0  0  0  0  0  0  0  0  0
   -0.6740  -10.8737   18.0482 C   0  0  0  0  0  0  0  0  0  0  0  0
    5.6751  -10.5870   29.7637 O   0  0  0  0  0  0  0  0  0  0  0  0
    1.7612   -5.6483   26.7172 C   0  0  0  0  0  0  0  0  0  0  0  0
    0.2221   -9.8326   17.4055 C   0  0  0  0  0  0  0  0  0  0  0  0
    4.3850   -9.0730   28.6745 C   0  0  0  0  0  0  0  0  0  0  0  0
  1  7  4  0
  1 22  4  0
  2 17  4  0
  2 20  4  0
  2 28  4  0
  3  6  1  0
  3 19  1  0
  4 19  1  0
  4 26  1  0
  5 17  4  0
  5 18  4  0
  6 20  1  0
  6 26  1  0
  7 24  4  0
  8 15  4  0
  8 24  4  0
  9 14  4  0
  9 21  4  0
 10 12  4  0
 10 27  4  0
 11 12  4  0
 11 23  4  0
 13 23  4  0
 13 27  4  0
 14 20  4  0
 15 22  4  0
 16 18  4  0
 16 25  2  0
 16 28  4  0
 21 28  4  0
 24 27  1  0
M  END
$$$$

 Created by Python create_sdf_string function

 28 31  0  0  0  0  0  0  0  0999 V2000
   -1.0054  -13.0622   19.1198 C   0  0  0  0  0  0  0  0  0  0  0  0
    3.1478   -8.5360   28.5161 C   0  0  0  0  0  0  0  0  0  0  0  0
    0.5798   -7.1906   27.9330 C   0  0  0  0  0  0  0  0  0  0  0  0
    0.3978   -5.1561   26.6955 C   0  0  0  0  0  0  0  0  0  0  0  0
    2.3063  -10.0533   30.0125 C   0  0  0  0  0  0  0  0  0  0  0  0
    1.8591   -6.8254   27.4685 N   0  0  0  0  0  0  0  0  0  0  0  0
   -0.2167  -12.1055   18.5568 C   0  0  0  0  0  0  0  0  0  0  0  0
   -2.0661  -10.6994   18.1916 C   0  0  0  0  0  0  0  0  0  0  0  0
    5.2703   -7.5691   27.1123 C   0  0  0  0  0  0  0  0  0  0  0  0
    1.6204   -9.9887   17.2935 C   0  0  0  0  0  0  0  0  0  0  0  0
    1.8931   -7.9265   16.2047 C   0  0  0  0  0  0  0  0  0  0  0  0
    2.4396   -9.0801   16.7132 C   0  0  0  0  0  0  0  0  0  0  0  0
   -0.2575   -8.6234   16.8582 C   0  0  0  0  0  0  0  0  0  0  0  0
    4.0614   -7.0367   27.0106 N   0  0  0  0  0  0  0  0  0  0  0  0
   -2.9133  -11.6279   18.7578 C   0  0  0  0  0  0  0  0  0  0  0  0
    4.5688  -10.1291   29.5758 C   0  0  0  0  0  0  0  0  0  0  0  0
    2.1008   -9.0410   29.1852 N   0  0  0  0  0  0  0  0  0  0  0  0
    3.4829  -10.5697   30.2091 N   0  0  0  0  0  0  0  0  0  0  0  0
   -0.3363   -6.1172   27.5628 C   0  0  0  0  0  0  0  0  0  0  0  0
    3.0331   -7.4400   27.6362 C   0  0  0  0  0  0  0  0  0  0  0  0
    5.4553   -8.5933   27.9644 C   0  0  0  0  0  0  0  0  0  0  0  0
   -2.3870  -12.8440   19.2512 C   0  0  0  0  0  0  0  0  0  0  0  0
    0.5331   -7.6964   16.2751 C   0  0  0  0  0  0  0  0  0  0  0  0
   -0.6740  -10.8737   18.0482 C   0  0  0  0  0  0  0  0  0  0  0  0
    5.6751  -10.5870   29.7637 O   0  0  0  0  0  0  0  0  0  0  0  0
    1.7612   -5.6483   26.7172 C   0  0  0  0  0  0  0  0  0  0  0  0
    0.2221   -9.8326   17.4055 C   0  0  0  0  0  0  0  0  0  0  0  0
    4.3850   -9.0730   28.6745 C   0  0  0  0  0  0  0  0  0  0  0  0
  1  7  4  0
  1 22  4  0
  2 17  4  0
  2 20  4  0
  2 28  4  0
  3  6  1  0
  3 19  1  0
  4 19  1  0
  4 26  1  0
  5 17  4  0
  5 18  4  0
  6 20  1  0
  6 26  1  0
  7 24  4  0
  8 15  4  0
  8 24  4  0
  9 14  4  0
  9 21  4  0
 10 12  4  0
 10 27  4  0
 11 12  4  0
 11 23  4  0
 13 23  4  0
 13 27  4  0
 14 20  4  0
 15 22  4  0
 16 18  4  0
 16 25  2  0
 16 28  4  0
 21 28  4  0
 24 27  1  0
M  END
$$$$

 Created by Python create_sdf_string function

 28 31  0  0  0  0  0  0  0  0999 V2000
   -1.0054  -13.0622   19.1198 C   0  0  0  0  0  0  0  0  0  0  0  0
    3.1478   -8.5360   28.5161 C   0  0  0  0  0  0  0  0  0  0  0  0
    0.5798   -7.1906   27.9330 C   0  0  0  0  0  0  0  0  0  0  0  0
    0.3978   -5.1561   26.6955 C   0  0  0  0  0  0  0  0  0  0  0  0
    2.3063  -10.0533   30.0125 C   0  0  0  0  0  0  0  0  0  0  0  0
    1.8591   -6.8254   27.4685 N   0  0  0  0  0  0  0  0  0  0  0  0
   -0.2167  -12.1055   18.5568 C   0  0  0  0  0  0  0  0  0  0  0  0
   -2.0661  -10.6994   18.1916 C   0  0  0  0  0  0  0  0  0  0  0  0
    5.2703   -7.5691   27.1123 C   0  0  0  0  0  0  0  0  0  0  0  0
    1.6204   -9.9887   17.2935 C   0  0  0  0  0  0  0  0  0  0  0  0
    1.8931   -7.9265   16.2047 C   0  0  0  0  0  0  0  0  0  0  0  0
    2.4396   -9.0801   16.7132 C   0  0  0  0  0  0  0  0  0  0  0  0
   -0.2575   -8.6234   16.8582 C   0  0  0  0  0  0  0  0  0  0  0  0
    4.0614   -7.0367   27.0106 N   0  0  0  0  0  0  0  0  0  0  0  0
   -2.9133  -11.6279   18.7578 C   0  0  0  0  0  0  0  0  0  0  0  0
    4.5688  -10.1291   29.5758 C   0  0  0  0  0  0  0  0  0  0  0  0
    2.1008   -9.0410   29.1852 N   0  0  0  0  0  0  0  0  0  0  0  0
    3.4829  -10.5697   30.2091 N   0  0  0  0  0  0  0  0  0  0  0  0
   -0.3363   -6.1172   27.5628 C   0  0  0  0  0  0  0  0  0  0  0  0
    3.0331   -7.4400   27.6362 C   0  0  0  0  0  0  0  0  0  0  0  0
    5.4553   -8.5933   27.9644 C   0  0  0  0  0  0  0  0  0  0  0  0
   -2.3870  -12.8440   19.2512 C   0  0  0  0  0  0  0  0  0  0  0  0
    0.5331   -7.6964   16.2751 C   0  0  0  0  0  0  0  0  0  0  0  0
   -0.6740  -10.8737   18.0482 C   0  0  0  0  0  0  0  0  0  0  0  0
    5.6751  -10.5870   29.7637 O   0  0  0  0  0  0  0  0  0  0  0  0
    1.7612   -5.6483   26.7172 C   0  0  0  0  0  0  0  0  0  0  0  0
    0.2221   -9.8326   17.4055 C   0  0  0  0  0  0  0  0  0  0  0  0
    4.3850   -9.0730   28.6745 C   0  0  0  0  0  0  0  0  0  0  0  0
  1  7  4  0
  1 22  4  0
  2 17  4  0
  2 20  4  0
  2 28  4  0
  3  6  1  0
  3 19  1  0
  4 19  1  0
  4 26  1  0
  5 17  4  0
  5 18  4  0
  6 20  1  0
  6 26  1  0
  7 24  4  0
  8 15  4  0
  8 24  4  0
  9 14  4  0
  9 21  4  0
 10 12  4  0
 10 27  4  0
 11 12  4  0
 11 23  4  0
 13 23  4  0
 13 27  4  0
 14 20  4  0
 15 22  4  0
 16 18  4  0
 16 25  2  0
 16 28  4  0
 21 28  4  0
 24 27  1  0
M  END
$$$$

 Created by Python create_sdf_string function

 28 31  0  0  0  0  0  0  0  0999 V2000
   -1.0054  -13.0622   19.1198 C   0  0  0  0  0  0  0  0  0  0  0  0
    3.1478   -8.5360   28.5161 C   0  0  0  0  0  0  0  0  0  0  0  0
    0.5798   -7.1906   27.9330 C   0  0  0  0  0  0  0  0  0  0  0  0
    0.3978   -5.1561   26.6955 C   0  0  0  0  0  0  0  0  0  0  0  0
    2.3063  -10.0533   30.0125 C   0  0  0  0  0  0  0  0  0  0  0  0
    1.8591   -6.8254   27.4685 N   0  0  0  0  0  0  0  0  0  0  0  0
   -0.2167  -12.1055   18.5568 C   0  0  0  0  0  0  0  0  0  0  0  0
   -2.0661  -10.6994   18.1916 C   0  0  0  0  0  0  0  0  0  0  0  0
    5.2703   -7.5691   27.1123 C   0  0  0  0  0  0  0  0  0  0  0  0
    1.6204   -9.9887   17.2935 C   0  0  0  0  0  0  0  0  0  0  0  0
    1.8931   -7.9265   16.2047 C   0  0  0  0  0  0  0  0  0  0  0  0
    2.4396   -9.0801   16.7132 C   0  0  0  0  0  0  0  0  0  0  0  0
   -0.2575   -8.6234   16.8582 C   0  0  0  0  0  0  0  0  0  0  0  0
    4.0614   -7.0367   27.0106 N   0  0  0  0  0  0  0  0  0  0  0  0
   -2.9133  -11.6279   18.7578 C   0  0  0  0  0  0  0  0  0  0  0  0
    4.5688  -10.1291   29.5758 C   0  0  0  0  0  0  0  0  0  0  0  0
    2.1008   -9.0410   29.1852 N   0  0  0  0  0  0  0  0  0  0  0  0
    3.4829  -10.5697   30.2091 N   0  0  0  0  0  0  0  0  0  0  0  0
   -0.3363   -6.1172   27.5628 C   0  0  0  0  0  0  0  0  0  0  0  0
    3.0331   -7.4400   27.6362 C   0  0  0  0  0  0  0  0  0  0  0  0
    5.4553   -8.5933   27.9644 C   0  0  0  0  0  0  0  0  0  0  0  0
   -2.3870  -12.8440   19.2512 C   0  0  0  0  0  0  0  0  0  0  0  0
    0.5331   -7.6964   16.2751 C   0  0  0  0  0  0  0  0  0  0  0  0
   -0.6740  -10.8737   18.0482 C   0  0  0  0  0  0  0  0  0  0  0  0
    5.6751  -10.5870   29.7637 O   0  0  0  0  0  0  0  0  0  0  0  0
    1.7612   -5.6483   26.7172 C   0  0  0  0  0  0  0  0  0  0  0  0
    0.2221   -9.8326   17.4055 C   0  0  0  0  0  0  0  0  0  0  0  0
    4.3850   -9.0730   28.6745 C   0  0  0  0  0  0  0  0  0  0  0  0
  1  7  4  0
  1 22  4  0
  2 17  4  0
  2 20  4  0
  2 28  4  0
  3  6  1  0
  3 19  1  0
  4 19  1  0
  4 26  1  0
  5 17  4  0
  5 18  4  0
  6 20  1  0
  6 26  1  0
  7 24  4  0
  8 15  4  0
  8 24  4  0
  9 14  4  0
  9 21  4  0
 10 12  4  0
 10 27  4  0
 11 12  4  0
 11 23  4  0
 13 23  4  0
 13 27  4  0
 14 20  4  0
 15 22  4  0
 16 18  4  0
 16 25  2  0
 16 28  4  0
 21 28  4  0
 24 27  1  0
M  END
$$$$

 Created by Python create_sdf_string function

 28 31  0  0  0  0  0  0  0  0999 V2000
   -1.0054  -13.0622   19.1198 C   0  0  0  0  0  0  0  0  0  0  0  0
    3.1478   -8.5360   28.5161 C   0  0  0  0  0  0  0  0  0  0  0  0
    0.5798   -7.1906   27.9330 C   0  0  0  0  0  0  0  0  0  0  0  0
    0.3978   -5.1561   26.6955 C   0  0  0  0  0  0  0  0  0  0  0  0
    2.3063  -10.0533   30.0125 C   0  0  0  0  0  0  0  0  0  0  0  0
    1.8591   -6.8254   27.4685 N   0  0  0  0  0  0  0  0  0  0  0  0
   -0.2167  -12.1055   18.5568 C   0  0  0  0  0  0  0  0  0  0  0  0
   -2.0661  -10.6994   18.1916 C   0  0  0  0  0  0  0  0  0  0  0  0
    5.2703   -7.5691   27.1123 C   0  0  0  0  0  0  0  0  0  0  0  0
    1.6204   -9.9887   17.2935 C   0  0  0  0  0  0  0  0  0  0  0  0
    1.8931   -7.9265   16.2047 C   0  0  0  0  0  0  0  0  0  0  0  0
    2.4396   -9.0801   16.7132 C   0  0  0  0  0  0  0  0  0  0  0  0
   -0.2575   -8.6234   16.8582 C   0  0  0  0  0  0  0  0  0  0  0  0
    4.0614   -7.0367   27.0106 N   0  0  0  0  0  0  0  0  0  0  0  0
   -2.9133  -11.6279   18.7578 C   0  0  0  0  0  0  0  0  0  0  0  0
    4.5688  -10.1291   29.5758 C   0  0  0  0  0  0  0  0  0  0  0  0
    2.1008   -9.0410   29.1852 N   0  0  0  0  0  0  0  0  0  0  0  0
    3.4829  -10.5697   30.2091 N   0  0  0  0  0  0  0  0  0  0  0  0
   -0.3363   -6.1172   27.5628 C   0  0  0  0  0  0  0  0  0  0  0  0
    3.0331   -7.4400   27.6362 C   0  0  0  0  0  0  0  0  0  0  0  0
    5.4553   -8.5933   27.9644 C   0  0  0  0  0  0  0  0  0  0  0  0
   -2.3870  -12.8440   19.2512 C   0  0  0  0  0  0  0  0  0  0  0  0
    0.5331   -7.6964   16.2751 C   0  0  0  0  0  0  0  0  0  0  0  0
   -0.6740  -10.8737   18.0482 C   0  0  0  0  0  0  0  0  0  0  0  0
    5.6751  -10.5870   29.7637 O   0  0  0  0  0  0  0  0  0  0  0  0
    1.7612   -5.6483   26.7172 C   0  0  0  0  0  0  0  0  0  0  0  0
    0.2221   -9.8326   17.4055 C   0  0  0  0  0  0  0  0  0  0  0  0
    4.3850   -9.0730   28.6745 C   0  0  0  0  0  0  0  0  0  0  0  0
  1  7  4  0
  1 22  4  0
  2 17  4  0
  2 20  4  0
  2 28  4  0
  3  6  1  0
  3 19  1  0
  4 19  1  0
  4 26  1  0
  5 17  4  0
  5 18  4  0
  6 20  1  0
  6 26  1  0
  7 24  4  0
  8 15  4  0
  8 24  4  0
  9 14  4  0
  9 21  4  0
 10 12  4  0
 10 27  4  0
 11 12  4  0
 11 23  4  0
 13 23  4  0
 13 27  4  0
 14 20  4  0
 15 22  4  0
 16 18  4  0
 16 25  2  0
 16 28  4  0
 21 28  4  0
 24 27  1  0
M  END
$$$$

 Created by Python create_sdf_string function

 28 31  0  0  0  0  0  0  0  0999 V2000
   -1.0054  -13.0622   19.1198 C   0  0  0  0  0  0  0  0  0  0  0  0
    3.1478   -8.5360   28.5161 C   0  0  0  0  0  0  0  0  0  0  0  0
    0.5798   -7.1906   27.9330 C   0  0  0  0  0  0  0  0  0  0  0  0
    0.3978   -5.1561   26.6955 C   0  0  0  0  0  0  0  0  0  0  0  0
    2.3063  -10.0533   30.0125 C   0  0  0  0  0  0  0  0  0  0  0  0
    1.8591   -6.8254   27.4685 N   0  0  0  0  0  0  0  0  0  0  0  0
   -0.2167  -12.1055   18.5568 C   0  0  0  0  0  0  0  0  0  0  0  0
   -2.0661  -10.6994   18.1916 C   0  0  0  0  0  0  0  0  0  0  0  0
    5.2703   -7.5691   27.1123 C   0  0  0  0  0  0  0  0  0  0  0  0
    1.6204   -9.9887   17.2935 C   0  0  0  0  0  0  0  0  0  0  0  0
    1.8931   -7.9265   16.2047 C   0  0  0  0  0  0  0  0  0  0  0  0
    2.4396   -9.0801   16.7132 C   0  0  0  0  0  0  0  0  0  0  0  0
   -0.2575   -8.6234   16.8582 C   0  0  0  0  0  0  0  0  0  0  0  0
    4.0614   -7.0367   27.0106 N   0  0  0  0  0  0  0  0  0  0  0  0
   -2.9133  -11.6279   18.7578 C   0  0  0  0  0  0  0  0  0  0  0  0
    4.5688  -10.1291   29.5758 C   0  0  0  0  0  0  0  0  0  0  0  0
    2.1008   -9.0410   29.1852 N   0  0  0  0  0  0  0  0  0  0  0  0
    3.4829  -10.5697   30.2091 N   0  0  0  0  0  0  0  0  0  0  0  0
   -0.3363   -6.1172   27.5628 C   0  0  0  0  0  0  0  0  0  0  0  0
    3.0331   -7.4400   27.6362 C   0  0  0  0  0  0  0  0  0  0  0  0
    5.4553   -8.5933   27.9644 C   0  0  0  0  0  0  0  0  0  0  0  0
   -2.3870  -12.8440   19.2512 C   0  0  0  0  0  0  0  0  0  0  0  0
    0.5331   -7.6964   16.2751 C   0  0  0  0  0  0  0  0  0  0  0  0
   -0.6740  -10.8737   18.0482 C   0  0  0  0  0  0  0  0  0  0  0  0
    5.6751  -10.5870   29.7637 O   0  0  0  0  0  0  0  0  0  0  0  0
    1.7612   -5.6483   26.7172 C   0  0  0  0  0  0  0  0  0  0  0  0
    0.2221   -9.8326   17.4055 C   0  0  0  0  0  0  0  0  0  0  0  0
    4.3850   -9.0730   28.6745 C   0  0  0  0  0  0  0  0  0  0  0  0
  1  7  4  0
  1 22  4  0
  2 17  4  0
  2 20  4  0
  2 28  4  0
  3  6  1  0
  3 19  1  0
  4 19  1  0
  4 26  1  0
  5 17  4  0
  5 18  4  0
  6 20  1  0
  6 26  1  0
  7 24  4  0
  8 15  4  0
  8 24  4  0
  9 14  4  0
  9 21  4  0
 10 12  4  0
 10 27  4  0
 11 12  4  0
 11 23  4  0
 13 23  4  0
 13 27  4  0
 14 20  4  0
 15 22  4  0
 16 18  4  0
 16 25  2  0
 16 28  4  0
 21 28  4  0
 24 27  1  0
M  END
$$$$

 Created by Python create_sdf_string function

 28 31  0  0  0  0  0  0  0  0999 V2000
   -1.0054  -13.0622   19.1198 C   0  0  0  0  0  0  0  0  0  0  0  0
    3.1478   -8.5360   28.5161 C   0  0  0  0  0  0  0  0  0  0  0  0
    0.5798   -7.1906   27.9330 C   0  0  0  0  0  0  0  0  0  0  0  0
    0.3978   -5.1561   26.6955 C   0  0  0  0  0  0  0  0  0  0  0  0
    2.3063  -10.0533   30.0125 C   0  0  0  0  0  0  0  0  0  0  0  0
    1.8591   -6.8254   27.4685 N   0  0  0  0  0  0  0  0  0  0  0  0
   -0.2167  -12.1055   18.5568 C   0  0  0  0  0  0  0  0  0  0  0  0
   -2.0661  -10.6994   18.1916 C   0  0  0  0  0  0  0  0  0  0  0  0
    5.2703   -7.5691   27.1123 C   0  0  0  0  0  0  0  0  0  0  0  0
    1.6204   -9.9887   17.2935 C   0  0  0  0  0  0  0  0  0  0  0  0
    1.8931   -7.9265   16.2047 C   0  0  0  0  0  0  0  0  0  0  0  0
    2.4396   -9.0801   16.7132 C   0  0  0  0  0  0  0  0  0  0  0  0
   -0.2575   -8.6234   16.8582 C   0  0  0  0  0  0  0  0  0  0  0  0
    4.0614   -7.0367   27.0106 N   0  0  0  0  0  0  0  0  0  0  0  0
   -2.9133  -11.6279   18.7578 C   0  0  0  0  0  0  0  0  0  0  0  0
    4.5688  -10.1291   29.5758 C   0  0  0  0  0  0  0  0  0  0  0  0
    2.1008   -9.0410   29.1852 N   0  0  0  0  0  0  0  0  0  0  0  0
    3.4829  -10.5697   30.2091 N   0  0  0  0  0  0  0  0  0  0  0  0
   -0.3363   -6.1172   27.5628 C   0  0  0  0  0  0  0  0  0  0  0  0
    3.0331   -7.4400   27.6362 C   0  0  0  0  0  0  0  0  0  0  0  0
    5.4553   -8.5933   27.9644 C   0  0  0  0  0  0  0  0  0  0  0  0
   -2.3870  -12.8440   19.2512 C   0  0  0  0  0  0  0  0  0  0  0  0
    0.5331   -7.6964   16.2751 C   0  0  0  0  0  0  0  0  0  0  0  0
   -0.6740  -10.8737   18.0482 C   0  0  0  0  0  0  0  0  0  0  0  0
    5.6751  -10.5870   29.7637 O   0  0  0  0  0  0  0  0  0  0  0  0
    1.7612   -5.6483   26.7172 C   0  0  0  0  0  0  0  0  0  0  0  0
    0.2221   -9.8326   17.4055 C   0  0  0  0  0  0  0  0  0  0  0  0
    4.3850   -9.0730   28.6745 C   0  0  0  0  0  0  0  0  0  0  0  0
  1  7  4  0
  1 22  4  0
  2 17  4  0
  2 20  4  0
  2 28  4  0
  3  6  1  0
  3 19  1  0
  4 19  1  0
  4 26  1  0
  5 17  4  0
  5 18  4  0
  6 20  1  0
  6 26  1  0
  7 24  4  0
  8 15  4  0
  8 24  4  0
  9 14  4  0
  9 21  4  0
 10 12  4  0
 10 27  4  0
 11 12  4  0
 11 23  4  0
 13 23  4  0
 13 27  4  0
 14 20  4  0
 15 22  4  0
 16 18  4  0
 16 25  2  0
 16 28  4  0
 21 28  4  0
 24 27  1  0
M  END
$$$$

 Created by Python create_sdf_string function

 28 31  0  0  0  0  0  0  0  0999 V2000
   -1.0054  -13.0622   19.1198 C   0  0  0  0  0  0  0  0  0  0  0  0
    3.1478   -8.5360   28.5161 C   0  0  0  0  0  0  0  0  0  0  0  0
    0.5798   -7.1906   27.9330 C   0  0  0  0  0  0  0  0  0  0  0  0
    0.3978   -5.1561   26.6955 C   0  0  0  0  0  0  0  0  0  0  0  0
    2.3063  -10.0533   30.0125 C   0  0  0  0  0  0  0  0  0  0  0  0
    1.8591   -6.8254   27.4685 N   0  0  0  0  0  0  0  0  0  0  0  0
   -0.2167  -12.1055   18.5568 C   0  0  0  0  0  0  0  0  0  0  0  0
   -2.0661  -10.6994   18.1916 C   0  0  0  0  0  0  0  0  0  0  0  0
    5.2703   -7.5691   27.1123 C   0  0  0  0  0  0  0  0  0  0  0  0
    1.6204   -9.9887   17.2935 C   0  0  0  0  0  0  0  0  0  0  0  0
    1.8931   -7.9265   16.2047 C   0  0  0  0  0  0  0  0  0  0  0  0
    2.4396   -9.0801   16.7132 C   0  0  0  0  0  0  0  0  0  0  0  0
   -0.2575   -8.6234   16.8582 C   0  0  0  0  0  0  0  0  0  0  0  0
    4.0614   -7.0367   27.0106 N   0  0  0  0  0  0  0  0  0  0  0  0
   -2.9133  -11.6279   18.7578 C   0  0  0  0  0  0  0  0  0  0  0  0
    4.5688  -10.1291   29.5758 C   0  0  0  0  0  0  0  0  0  0  0  0
    2.1008   -9.0410   29.1852 N   0  0  0  0  0  0  0  0  0  0  0  0
    3.4829  -10.5697   30.2091 N   0  0  0  0  0  0  0  0  0  0  0  0
   -0.3363   -6.1172   27.5628 C   0  0  0  0  0  0  0  0  0  0  0  0
    3.0331   -7.4400   27.6362 C   0  0  0  0  0  0  0  0  0  0  0  0
    5.4553   -8.5933   27.9644 C   0  0  0  0  0  0  0  0  0  0  0  0
   -2.3870  -12.8440   19.2512 C   0  0  0  0  0  0  0  0  0  0  0  0
    0.5331   -7.6964   16.2751 C   0  0  0  0  0  0  0  0  0  0  0  0
   -0.6740  -10.8737   18.0482 C   0  0  0  0  0  0  0  0  0  0  0  0
    5.6751  -10.5870   29.7637 O   0  0  0  0  0  0  0  0  0  0  0  0
    1.7612   -5.6483   26.7172 C   0  0  0  0  0  0  0  0  0  0  0  0
    0.2221   -9.8326   17.4055 C   0  0  0  0  0  0  0  0  0  0  0  0
    4.3850   -9.0730   28.6745 C   0  0  0  0  0  0  0  0  0  0  0  0
  1  7  4  0
  1 22  4  0
  2 17  4  0
  2 20  4  0
  2 28  4  0
  3  6  1  0
  3 19  1  0
  4 19  1  0
  4 26  1  0
  5 17  4  0
  5 18  4  0
  6 20  1  0
  6 26  1  0
  7 24  4  0
  8 15  4  0
  8 24  4  0
  9 14  4  0
  9 21  4  0
 10 12  4  0
 10 27  4  0
 11 12  4  0
 11 23  4  0
 13 23  4  0
 13 27  4  0
 14 20  4  0
 15 22  4  0
 16 18  4  0
 16 25  2  0
 16 28  4  0
 21 28  4  0
 24 27  1  0
M  END
$$$$

 Created by Python create_sdf_string function

 28 31  0  0  0  0  0  0  0  0999 V2000
   -1.0054  -13.0622   19.1198 C   0  0  0  0  0  0  0  0  0  0  0  0
    3.1478   -8.5360   28.5161 C   0  0  0  0  0  0  0  0  0  0  0  0
    0.5798   -7.1906   27.9330 C   0  0  0  0  0  0  0  0  0  0  0  0
    0.3978   -5.1561   26.6955 C   0  0  0  0  0  0  0  0  0  0  0  0
    2.3063  -10.0533   30.0125 C   0  0  0  0  0  0  0  0  0  0  0  0
    1.8591   -6.8254   27.4685 N   0  0  0  0  0  0  0  0  0  0  0  0
   -0.2167  -12.1055   18.5568 C   0  0  0  0  0  0  0  0  0  0  0  0
   -2.0661  -10.6994   18.1916 C   0  0  0  0  0  0  0  0  0  0  0  0
    5.2703   -7.5691   27.1123 C   0  0  0  0  0  0  0  0  0  0  0  0
    1.6204   -9.9887   17.2935 C   0  0  0  0  0  0  0  0  0  0  0  0
    1.8931   -7.9265   16.2047 C   0  0  0  0  0  0  0  0  0  0  0  0
    2.4396   -9.0801   16.7132 C   0  0  0  0  0  0  0  0  0  0  0  0
   -0.2575   -8.6234   16.8582 C   0  0  0  0  0  0  0  0  0  0  0  0
    4.0614   -7.0367   27.0106 N   0  0  0  0  0  0  0  0  0  0  0  0
   -2.9133  -11.6279   18.7578 C   0  0  0  0  0  0  0  0  0  0  0  0
    4.5688  -10.1291   29.5758 C   0  0  0  0  0  0  0  0  0  0  0  0
    2.1008   -9.0410   29.1852 N   0  0  0  0  0  0  0  0  0  0  0  0
    3.4829  -10.5697   30.2091 N   0  0  0  0  0  0  0  0  0  0  0  0
   -0.3363   -6.1172   27.5628 C   0  0  0  0  0  0  0  0  0  0  0  0
    3.0331   -7.4400   27.6362 C   0  0  0  0  0  0  0  0  0  0  0  0
    5.4553   -8.5933   27.9644 C   0  0  0  0  0  0  0  0  0  0  0  0
   -2.3870  -12.8440   19.2512 C   0  0  0  0  0  0  0  0  0  0  0  0
    0.5331   -7.6964   16.2751 C   0  0  0  0  0  0  0  0  0  0  0  0
   -0.6740  -10.8737   18.0482 C   0  0  0  0  0  0  0  0  0  0  0  0
    5.6751  -10.5870   29.7637 O   0  0  0  0  0  0  0  0  0  0  0  0
    1.7612   -5.6483   26.7172 C   0  0  0  0  0  0  0  0  0  0  0  0
    0.2221   -9.8326   17.4055 C   0  0  0  0  0  0  0  0  0  0  0  0
    4.3850   -9.0730   28.6745 C   0  0  0  0  0  0  0  0  0  0  0  0
  1  7  4  0
  1 22  4  0
  2 17  4  0
  2 20  4  0
  2 28  4  0
  3  6  1  0
  3 19  1  0
  4 19  1  0
  4 26  1  0
  5 17  4  0
  5 18  4  0
  6 20  1  0
  6 26  1  0
  7 24  4  0
  8 15  4  0
  8 24  4  0
  9 14  4  0
  9 21  4  0
 10 12  4  0
 10 27  4  0
 11 12  4  0
 11 23  4  0
 13 23  4  0
 13 27  4  0
 14 20  4  0
 15 22  4  0
 16 18  4  0
 16 25  2  0
 16 28  4  0
 21 28  4  0
 24 27  1  0
M  END
$$$$

 Created by Python create_sdf_string function

 28 31  0  0  0  0  0  0  0  0999 V2000
   -1.0054  -13.0622   19.1198 C   0  0  0  0  0  0  0  0  0  0  0  0
    3.1478   -8.5360   28.5161 C   0  0  0  0  0  0  0  0  0  0  0  0
    0.5798   -7.1906   27.9330 C   0  0  0  0  0  0  0  0  0  0  0  0
    0.3978   -5.1561   26.6955 C   0  0  0  0  0  0  0  0  0  0  0  0
    2.3063  -10.0533   30.0125 C   0  0  0  0  0  0  0  0  0  0  0  0
    1.8591   -6.8254   27.4685 N   0  0  0  0  0  0  0  0  0  0  0  0
   -0.2167  -12.1055   18.5568 C   0  0  0  0  0  0  0  0  0  0  0  0
   -2.0661  -10.6994   18.1916 C   0  0  0  0  0  0  0  0  0  0  0  0
    5.2703   -7.5691   27.1123 C   0  0  0  0  0  0  0  0  0  0  0  0
    1.6204   -9.9887   17.2935 C   0  0  0  0  0  0  0  0  0  0  0  0
    1.8931   -7.9265   16.2047 C   0  0  0  0  0  0  0  0  0  0  0  0
    2.4396   -9.0801   16.7132 C   0  0  0  0  0  0  0  0  0  0  0  0
   -0.2575   -8.6234   16.8582 C   0  0  0  0  0  0  0  0  0  0  0  0
    4.0614   -7.0367   27.0106 N   0  0  0  0  0  0  0  0  0  0  0  0
   -2.9133  -11.6279   18.7578 C   0  0  0  0  0  0  0  0  0  0  0  0
    4.5688  -10.1291   29.5758 C   0  0  0  0  0  0  0  0  0  0  0  0
    2.1008   -9.0410   29.1852 N   0  0  0  0  0  0  0  0  0  0  0  0
    3.4829  -10.5697   30.2091 N   0  0  0  0  0  0  0  0  0  0  0  0
   -0.3363   -6.1172   27.5628 C   0  0  0  0  0  0  0  0  0  0  0  0
    3.0331   -7.4400   27.6362 C   0  0  0  0  0  0  0  0  0  0  0  0
    5.4553   -8.5933   27.9644 C   0  0  0  0  0  0  0  0  0  0  0  0
   -2.3870  -12.8440   19.2512 C   0  0  0  0  0  0  0  0  0  0  0  0
    0.5331   -7.6964   16.2751 C   0  0  0  0  0  0  0  0  0  0  0  0
   -0.6740  -10.8737   18.0482 C   0  0  0  0  0  0  0  0  0  0  0  0
    5.6751  -10.5870   29.7637 O   0  0  0  0  0  0  0  0  0  0  0  0
    1.7612   -5.6483   26.7172 C   0  0  0  0  0  0  0  0  0  0  0  0
    0.2221   -9.8326   17.4055 C   0  0  0  0  0  0  0  0  0  0  0  0
    4.3850   -9.0730   28.6745 C   0  0  0  0  0  0  0  0  0  0  0  0
  1  7  4  0
  1 22  4  0
  2 17  4  0
  2 20  4  0
  2 28  4  0
  3  6  1  0
  3 19  1  0
  4 19  1  0
  4 26  1  0
  5 17  4  0
  5 18  4  0
  6 20  1  0
  6 26  1  0
  7 24  4  0
  8 15  4  0
  8 24  4  0
  9 14  4  0
  9 21  4  0
 10 12  4  0
 10 27  4  0
 11 12  4  0
 11 23  4  0
 13 23  4  0
 13 27  4  0
 14 20  4  0
 15 22  4  0
 16 18  4  0
 16 25  2  0
 16 28  4  0
 21 28  4  0
 24 27  1  0
M  END
$$$$

 Created by Python create_sdf_string function

 28 31  0  0  0  0  0  0  0  0999 V2000
   -1.0054  -13.0622   19.1198 C   0  0  0  0  0  0  0  0  0  0  0  0
    3.1478   -8.5360   28.5161 C   0  0  0  0  0  0  0  0  0  0  0  0
    0.5798   -7.1906   27.9330 C   0  0  0  0  0  0  0  0  0  0  0  0
    0.3978   -5.1561   26.6955 C   0  0  0  0  0  0  0  0  0  0  0  0
    2.3063  -10.0533   30.0125 C   0  0  0  0  0  0  0  0  0  0  0  0
    1.8591   -6.8254   27.4685 N   0  0  0  0  0  0  0  0  0  0  0  0
   -0.2167  -12.1055   18.5568 C   0  0  0  0  0  0  0  0  0  0  0  0
   -2.0661  -10.6994   18.1916 C   0  0  0  0  0  0  0  0  0  0  0  0
    5.2703   -7.5691   27.1123 C   0  0  0  0  0  0  0  0  0  0  0  0
    1.6204   -9.9887   17.2935 C   0  0  0  0  0  0  0  0  0  0  0  0
    1.8931   -7.9265   16.2047 C   0  0  0  0  0  0  0  0  0  0  0  0
    2.4396   -9.0801   16.7132 C   0  0  0  0  0  0  0  0  0  0  0  0
   -0.2575   -8.6234   16.8582 C   0  0  0  0  0  0  0  0  0  0  0  0
    4.0614   -7.0367   27.0106 N   0  0  0  0  0  0  0  0  0  0  0  0
   -2.9133  -11.6279   18.7578 C   0  0  0  0  0  0  0  0  0  0  0  0
    4.5688  -10.1291   29.5758 C   0  0  0  0  0  0  0  0  0  0  0  0
    2.1008   -9.0410   29.1852 N   0  0  0  0  0  0  0  0  0  0  0  0
    3.4829  -10.5697   30.2091 N   0  0  0  0  0  0  0  0  0  0  0  0
   -0.3363   -6.1172   27.5628 C   0  0  0  0  0  0  0  0  0  0  0  0
    3.0331   -7.4400   27.6362 C   0  0  0  0  0  0  0  0  0  0  0  0
    5.4553   -8.5933   27.9644 C   0  0  0  0  0  0  0  0  0  0  0  0
   -2.3870  -12.8440   19.2512 C   0  0  0  0  0  0  0  0  0  0  0  0
    0.5331   -7.6964   16.2751 C   0  0  0  0  0  0  0  0  0  0  0  0
   -0.6740  -10.8737   18.0482 C   0  0  0  0  0  0  0  0  0  0  0  0
    5.6751  -10.5870   29.7637 O   0  0  0  0  0  0  0  0  0  0  0  0
    1.7612   -5.6483   26.7172 C   0  0  0  0  0  0  0  0  0  0  0  0
    0.2221   -9.8326   17.4055 C   0  0  0  0  0  0  0  0  0  0  0  0
    4.3850   -9.0730   28.6745 C   0  0  0  0  0  0  0  0  0  0  0  0
  1  7  4  0
  1 22  4  0
  2 17  4  0
  2 20  4  0
  2 28  4  0
  3  6  1  0
  3 19  1  0
  4 19  1  0
  4 26  1  0
  5 17  4  0
  5 18  4  0
  6 20  1  0
  6 26  1  0
  7 24  4  0
  8 15  4  0
  8 24  4  0
  9 14  4  0
  9 21  4  0
 10 12  4  0
 10 27  4  0
 11 12  4  0
 11 23  4  0
 13 23  4  0
 13 27  4  0
 14 20  4  0
 15 22  4  0
 16 18  4  0
 16 25  2  0
 16 28  4  0
 21 28  4  0
 24 27  1  0
M  END
$$$$

 Created by Python create_sdf_string function

 28 31  0  0  0  0  0  0  0  0999 V2000
   -1.0054  -13.0622   19.1198 C   0  0  0  0  0  0  0  0  0  0  0  0
    3.1478   -8.5360   28.5161 C   0  0  0  0  0  0  0  0  0  0  0  0
    0.5798   -7.1906   27.9330 C   0  0  0  0  0  0  0  0  0  0  0  0
    0.3978   -5.1561   26.6955 C   0  0  0  0  0  0  0  0  0  0  0  0
    2.3063  -10.0533   30.0125 C   0  0  0  0  0  0  0  0  0  0  0  0
    1.8591   -6.8254   27.4685 N   0  0  0  0  0  0  0  0  0  0  0  0
   -0.2167  -12.1055   18.5568 C   0  0  0  0  0  0  0  0  0  0  0  0
   -2.0661  -10.6994   18.1916 C   0  0  0  0  0  0  0  0  0  0  0  0
    5.2703   -7.5691   27.1123 C   0  0  0  0  0  0  0  0  0  0  0  0
    1.6204   -9.9887   17.2935 C   0  0  0  0  0  0  0  0  0  0  0  0
    1.8931   -7.9265   16.2047 C   0  0  0  0  0  0  0  0  0  0  0  0
    2.4396   -9.0801   16.7132 C   0  0  0  0  0  0  0  0  0  0  0  0
   -0.2575   -8.6234   16.8582 C   0  0  0  0  0  0  0  0  0  0  0  0
    4.0614   -7.0367   27.0106 N   0  0  0  0  0  0  0  0  0  0  0  0
   -2.9133  -11.6279   18.7578 C   0  0  0  0  0  0  0  0  0  0  0  0
    4.5688  -10.1291   29.5758 C   0  0  0  0  0  0  0  0  0  0  0  0
    2.1008   -9.0410   29.1852 N   0  0  0  0  0  0  0  0  0  0  0  0
    3.4829  -10.5697   30.2091 N   0  0  0  0  0  0  0  0  0  0  0  0
   -0.3363   -6.1172   27.5628 C   0  0  0  0  0  0  0  0  0  0  0  0
    3.0331   -7.4400   27.6362 C   0  0  0  0  0  0  0  0  0  0  0  0
    5.4553   -8.5933   27.9644 C   0  0  0  0  0  0  0  0  0  0  0  0
   -2.3870  -12.8440   19.2512 C   0  0  0  0  0  0  0  0  0  0  0  0
    0.5331   -7.6964   16.2751 C   0  0  0  0  0  0  0  0  0  0  0  0
   -0.6740  -10.8737   18.0482 C   0  0  0  0  0  0  0  0  0  0  0  0
    5.6751  -10.5870   29.7637 O   0  0  0  0  0  0  0  0  0  0  0  0
    1.7612   -5.6483   26.7172 C   0  0  0  0  0  0  0  0  0  0  0  0
    0.2221   -9.8326   17.4055 C   0  0  0  0  0  0  0  0  0  0  0  0
    4.3850   -9.0730   28.6745 C   0  0  0  0  0  0  0  0  0  0  0  0
  1  7  4  0
  1 22  4  0
  2 17  4  0
  2 20  4  0
  2 28  4  0
  3  6  1  0
  3 19  1  0
  4 19  1  0
  4 26  1  0
  5 17  4  0
  5 18  4  0
  6 20  1  0
  6 26  1  0
  7 24  4  0
  8 15  4  0
  8 24  4  0
  9 14  4  0
  9 21  4  0
 10 12  4  0
 10 27  4  0
 11 12  4  0
 11 23  4  0
 13 23  4  0
 13 27  4  0
 14 20  4  0
 15 22  4  0
 16 18  4  0
 16 25  2  0
 16 28  4  0
 21 28  4  0
 24 27  1  0
M  END
$$$$

 Created by Python create_sdf_string function

 28 31  0  0  0  0  0  0  0  0999 V2000
   -1.0054  -13.0622   19.1198 C   0  0  0  0  0  0  0  0  0  0  0  0
    3.1478   -8.5360   28.5161 C   0  0  0  0  0  0  0  0  0  0  0  0
    0.5798   -7.1906   27.9330 C   0  0  0  0  0  0  0  0  0  0  0  0
    0.3978   -5.1561   26.6955 C   0  0  0  0  0  0  0  0  0  0  0  0
    2.3063  -10.0533   30.0125 C   0  0  0  0  0  0  0  0  0  0  0  0
    1.8591   -6.8254   27.4685 N   0  0  0  0  0  0  0  0  0  0  0  0
   -0.2167  -12.1055   18.5568 C   0  0  0  0  0  0  0  0  0  0  0  0
   -2.0661  -10.6994   18.1916 C   0  0  0  0  0  0  0  0  0  0  0  0
    5.2703   -7.5691   27.1123 C   0  0  0  0  0  0  0  0  0  0  0  0
    1.6204   -9.9887   17.2935 C   0  0  0  0  0  0  0  0  0  0  0  0
    1.8931   -7.9265   16.2047 C   0  0  0  0  0  0  0  0  0  0  0  0
    2.4396   -9.0801   16.7132 C   0  0  0  0  0  0  0  0  0  0  0  0
   -0.2575   -8.6234   16.8582 C   0  0  0  0  0  0  0  0  0  0  0  0
    4.0614   -7.0367   27.0106 N   0  0  0  0  0  0  0  0  0  0  0  0
   -2.9133  -11.6279   18.7578 C   0  0  0  0  0  0  0  0  0  0  0  0
    4.5688  -10.1291   29.5758 C   0  0  0  0  0  0  0  0  0  0  0  0
    2.1008   -9.0410   29.1852 N   0  0  0  0  0  0  0  0  0  0  0  0
    3.4829  -10.5697   30.2091 N   0  0  0  0  0  0  0  0  0  0  0  0
   -0.3363   -6.1172   27.5628 C   0  0  0  0  0  0  0  0  0  0  0  0
    3.0331   -7.4400   27.6362 C   0  0  0  0  0  0  0  0  0  0  0  0
    5.4553   -8.5933   27.9644 C   0  0  0  0  0  0  0  0  0  0  0  0
   -2.3870  -12.8440   19.2512 C   0  0  0  0  0  0  0  0  0  0  0  0
    0.5331   -7.6964   16.2751 C   0  0  0  0  0  0  0  0  0  0  0  0
   -0.6740  -10.8737   18.0482 C   0  0  0  0  0  0  0  0  0  0  0  0
    5.6751  -10.5870   29.7637 O   0  0  0  0  0  0  0  0  0  0  0  0
    1.7612   -5.6483   26.7172 C   0  0  0  0  0  0  0  0  0  0  0  0
    0.2221   -9.8326   17.4055 C   0  0  0  0  0  0  0  0  0  0  0  0
    4.3850   -9.0730   28.6745 C   0  0  0  0  0  0  0  0  0  0  0  0
  1  7  4  0
  1 22  4  0
  2 17  4  0
  2 20  4  0
  2 28  4  0
  3  6  1  0
  3 19  1  0
  4 19  1  0
  4 26  1  0
  5 17  4  0
  5 18  4  0
  6 20  1  0
  6 26  1  0
  7 24  4  0
  8 15  4  0
  8 24  4  0
  9 14  4  0
  9 21  4  0
 10 12  4  0
 10 27  4  0
 11 12  4  0
 11 23  4  0
 13 23  4  0
 13 27  4  0
 14 20  4  0
 15 22  4  0
 16 18  4  0
 16 25  2  0
 16 28  4  0
 21 28  4  0
 24 27  1  0
M  END
$$$$

 Created by Python create_sdf_string function

 28 31  0  0  0  0  0  0  0  0999 V2000
   -1.0054  -13.0622   19.1198 C   0  0  0  0  0  0  0  0  0  0  0  0
    3.1478   -8.5360   28.5161 C   0  0  0  0  0  0  0  0  0  0  0  0
    0.5798   -7.1906   27.9330 C   0  0  0  0  0  0  0  0  0  0  0  0
    0.3978   -5.1561   26.6955 C   0  0  0  0  0  0  0  0  0  0  0  0
    2.3063  -10.0533   30.0125 C   0  0  0  0  0  0  0  0  0  0  0  0
    1.8591   -6.8254   27.4685 N   0  0  0  0  0  0  0  0  0  0  0  0
   -0.2167  -12.1055   18.5568 C   0  0  0  0  0  0  0  0  0  0  0  0
   -2.0661  -10.6994   18.1916 C   0  0  0  0  0  0  0  0  0  0  0  0
    5.2703   -7.5691   27.1123 C   0  0  0  0  0  0  0  0  0  0  0  0
    1.6204   -9.9887   17.2935 C   0  0  0  0  0  0  0  0  0  0  0  0
    1.8931   -7.9265   16.2047 C   0  0  0  0  0  0  0  0  0  0  0  0
    2.4396   -9.0801   16.7132 C   0  0  0  0  0  0  0  0  0  0  0  0
   -0.2575   -8.6234   16.8582 C   0  0  0  0  0  0  0  0  0  0  0  0
    4.0614   -7.0367   27.0106 N   0  0  0  0  0  0  0  0  0  0  0  0
   -2.9133  -11.6279   18.7578 C   0  0  0  0  0  0  0  0  0  0  0  0
    4.5688  -10.1291   29.5758 C   0  0  0  0  0  0  0  0  0  0  0  0
    2.1008   -9.0410   29.1852 N   0  0  0  0  0  0  0  0  0  0  0  0
    3.4829  -10.5697   30.2091 N   0  0  0  0  0  0  0  0  0  0  0  0
   -0.3363   -6.1172   27.5628 C   0  0  0  0  0  0  0  0  0  0  0  0
    3.0331   -7.4400   27.6362 C   0  0  0  0  0  0  0  0  0  0  0  0
    5.4553   -8.5933   27.9644 C   0  0  0  0  0  0  0  0  0  0  0  0
   -2.3870  -12.8440   19.2512 C   0  0  0  0  0  0  0  0  0  0  0  0
    0.5331   -7.6964   16.2751 C   0  0  0  0  0  0  0  0  0  0  0  0
   -0.6740  -10.8737   18.0482 C   0  0  0  0  0  0  0  0  0  0  0  0
    5.6751  -10.5870   29.7637 O   0  0  0  0  0  0  0  0  0  0  0  0
    1.7612   -5.6483   26.7172 C   0  0  0  0  0  0  0  0  0  0  0  0
    0.2221   -9.8326   17.4055 C   0  0  0  0  0  0  0  0  0  0  0  0
    4.3850   -9.0730   28.6745 C   0  0  0  0  0  0  0  0  0  0  0  0
  1  7  4  0
  1 22  4  0
  2 17  4  0
  2 20  4  0
  2 28  4  0
  3  6  1  0
  3 19  1  0
  4 19  1  0
  4 26  1  0
  5 17  4  0
  5 18  4  0
  6 20  1  0
  6 26  1  0
  7 24  4  0
  8 15  4  0
  8 24  4  0
  9 14  4  0
  9 21  4  0
 10 12  4  0
 10 27  4  0
 11 12  4  0
 11 23  4  0
 13 23  4  0
 13 27  4  0
 14 20  4  0
 15 22  4  0
 16 18  4  0
 16 25  2  0
 16 28  4  0
 21 28  4  0
 24 27  1  0
M  END
$$$$

 Created by Python create_sdf_string function

 28 31  0  0  0  0  0  0  0  0999 V2000
   -1.0054  -13.0622   19.1198 C   0  0  0  0  0  0  0  0  0  0  0  0
    3.1478   -8.5360   28.5161 C   0  0  0  0  0  0  0  0  0  0  0  0
    0.5798   -7.1906   27.9330 C   0  0  0  0  0  0  0  0  0  0  0  0
    0.3978   -5.1561   26.6955 C   0  0  0  0  0  0  0  0  0  0  0  0
    2.3063  -10.0533   30.0125 C   0  0  0  0  0  0  0  0  0  0  0  0
    1.8591   -6.8254   27.4685 N   0  0  0  0  0  0  0  0  0  0  0  0
   -0.2167  -12.1055   18.5568 C   0  0  0  0  0  0  0  0  0  0  0  0
   -2.0661  -10.6994   18.1916 C   0  0  0  0  0  0  0  0  0  0  0  0
    5.2703   -7.5691   27.1123 C   0  0  0  0  0  0  0  0  0  0  0  0
    1.6204   -9.9887   17.2935 C   0  0  0  0  0  0  0  0  0  0  0  0
    1.8931   -7.9265   16.2047 C   0  0  0  0  0  0  0  0  0  0  0  0
    2.4396   -9.0801   16.7132 C   0  0  0  0  0  0  0  0  0  0  0  0
   -0.2575   -8.6234   16.8582 C   0  0  0  0  0  0  0  0  0  0  0  0
    4.0614   -7.0367   27.0106 N   0  0  0  0  0  0  0  0  0  0  0  0
   -2.9133  -11.6279   18.7578 C   0  0  0  0  0  0  0  0  0  0  0  0
    4.5688  -10.1291   29.5758 C   0  0  0  0  0  0  0  0  0  0  0  0
    2.1008   -9.0410   29.1852 N   0  0  0  0  0  0  0  0  0  0  0  0
    3.4829  -10.5697   30.2091 N   0  0  0  0  0  0  0  0  0  0  0  0
   -0.3363   -6.1172   27.5628 C   0  0  0  0  0  0  0  0  0  0  0  0
    3.0331   -7.4400   27.6362 C   0  0  0  0  0  0  0  0  0  0  0  0
    5.4553   -8.5933   27.9644 C   0  0  0  0  0  0  0  0  0  0  0  0
   -2.3870  -12.8440   19.2512 C   0  0  0  0  0  0  0  0  0  0  0  0
    0.5331   -7.6964   16.2751 C   0  0  0  0  0  0  0  0  0  0  0  0
   -0.6740  -10.8737   18.0482 C   0  0  0  0  0  0  0  0  0  0  0  0
    5.6751  -10.5870   29.7637 O   0  0  0  0  0  0  0  0  0  0  0  0
    1.7612   -5.6483   26.7172 C   0  0  0  0  0  0  0  0  0  0  0  0
    0.2221   -9.8326   17.4055 C   0  0  0  0  0  0  0  0  0  0  0  0
    4.3850   -9.0730   28.6745 C   0  0  0  0  0  0  0  0  0  0  0  0
  1  7  4  0
  1 22  4  0
  2 17  4  0
  2 20  4  0
  2 28  4  0
  3  6  1  0
  3 19  1  0
  4 19  1  0
  4 26  1  0
  5 17  4  0
  5 18  4  0
  6 20  1  0
  6 26  1  0
  7 24  4  0
  8 15  4  0
  8 24  4  0
  9 14  4  0
  9 21  4  0
 10 12  4  0
 10 27  4  0
 11 12  4  0
 11 23  4  0
 13 23  4  0
 13 27  4  0
 14 20  4  0
 15 22  4  0
 16 18  4  0
 16 25  2  0
 16 28  4  0
 21 28  4  0
 24 27  1  0
M  END
$$$$

 Created by Python create_sdf_string function

 28 31  0  0  0  0  0  0  0  0999 V2000
   -1.0054  -13.0622   19.1198 C   0  0  0  0  0  0  0  0  0  0  0  0
    3.1478   -8.5360   28.5161 C   0  0  0  0  0  0  0  0  0  0  0  0
    0.5798   -7.1906   27.9330 C   0  0  0  0  0  0  0  0  0  0  0  0
    0.3978   -5.1561   26.6955 C   0  0  0  0  0  0  0  0  0  0  0  0
    2.3063  -10.0533   30.0125 C   0  0  0  0  0  0  0  0  0  0  0  0
    1.8591   -6.8254   27.4685 N   0  0  0  0  0  0  0  0  0  0  0  0
   -0.2167  -12.1055   18.5568 C   0  0  0  0  0  0  0  0  0  0  0  0
   -2.0661  -10.6994   18.1916 C   0  0  0  0  0  0  0  0  0  0  0  0
    5.2703   -7.5691   27.1123 C   0  0  0  0  0  0  0  0  0  0  0  0
    1.6204   -9.9887   17.2935 C   0  0  0  0  0  0  0  0  0  0  0  0
    1.8931   -7.9265   16.2047 C   0  0  0  0  0  0  0  0  0  0  0  0
    2.4396   -9.0801   16.7132 C   0  0  0  0  0  0  0  0  0  0  0  0
   -0.2575   -8.6234   16.8582 C   0  0  0  0  0  0  0  0  0  0  0  0
    4.0614   -7.0367   27.0106 N   0  0  0  0  0  0  0  0  0  0  0  0
   -2.9133  -11.6279   18.7578 C   0  0  0  0  0  0  0  0  0  0  0  0
    4.5688  -10.1291   29.5758 C   0  0  0  0  0  0  0  0  0  0  0  0
    2.1008   -9.0410   29.1852 N   0  0  0  0  0  0  0  0  0  0  0  0
    3.4829  -10.5697   30.2091 N   0  0  0  0  0  0  0  0  0  0  0  0
   -0.3363   -6.1172   27.5628 C   0  0  0  0  0  0  0  0  0  0  0  0
    3.0331   -7.4400   27.6362 C   0  0  0  0  0  0  0  0  0  0  0  0
    5.4553   -8.5933   27.9644 C   0  0  0  0  0  0  0  0  0  0  0  0
   -2.3870  -12.8440   19.2512 C   0  0  0  0  0  0  0  0  0  0  0  0
    0.5331   -7.6964   16.2751 C   0  0  0  0  0  0  0  0  0  0  0  0
   -0.6740  -10.8737   18.0482 C   0  0  0  0  0  0  0  0  0  0  0  0
    5.6751  -10.5870   29.7637 O   0  0  0  0  0  0  0  0  0  0  0  0
    1.7612   -5.6483   26.7172 C   0  0  0  0  0  0  0  0  0  0  0  0
    0.2221   -9.8326   17.4055 C   0  0  0  0  0  0  0  0  0  0  0  0
    4.3850   -9.0730   28.6745 C   0  0  0  0  0  0  0  0  0  0  0  0
  1  7  4  0
  1 22  4  0
  2 17  4  0
  2 20  4  0
  2 28  4  0
  3  6  1  0
  3 19  1  0
  4 19  1  0
  4 26  1  0
  5 17  4  0
  5 18  4  0
  6 20  1  0
  6 26  1  0
  7 24  4  0
  8 15  4  0
  8 24  4  0
  9 14  4  0
  9 21  4  0
 10 12  4  0
 10 27  4  0
 11 12  4  0
 11 23  4  0
 13 23  4  0
 13 27  4  0
 14 20  4  0
 15 22  4  0
 16 18  4  0
 16 25  2  0
 16 28  4  0
 21 28  4  0
 24 27  1  0
M  END
$$$$

 Created by Python create_sdf_string function

 28 31  0  0  0  0  0  0  0  0999 V2000
   -1.0054  -13.0622   19.1198 C   0  0  0  0  0  0  0  0  0  0  0  0
    3.1478   -8.5360   28.5161 C   0  0  0  0  0  0  0  0  0  0  0  0
    0.5798   -7.1906   27.9330 C   0  0  0  0  0  0  0  0  0  0  0  0
    0.3978   -5.1561   26.6955 C   0  0  0  0  0  0  0  0  0  0  0  0
    2.3063  -10.0533   30.0125 C   0  0  0  0  0  0  0  0  0  0  0  0
    1.8591   -6.8254   27.4685 N   0  0  0  0  0  0  0  0  0  0  0  0
   -0.2167  -12.1055   18.5568 C   0  0  0  0  0  0  0  0  0  0  0  0
   -2.0661  -10.6994   18.1916 C   0  0  0  0  0  0  0  0  0  0  0  0
    5.2703   -7.5691   27.1123 C   0  0  0  0  0  0  0  0  0  0  0  0
    1.6204   -9.9887   17.2935 C   0  0  0  0  0  0  0  0  0  0  0  0
    1.8931   -7.9265   16.2047 C   0  0  0  0  0  0  0  0  0  0  0  0
    2.4396   -9.0801   16.7132 C   0  0  0  0  0  0  0  0  0  0  0  0
   -0.2575   -8.6234   16.8582 C   0  0  0  0  0  0  0  0  0  0  0  0
    4.0614   -7.0367   27.0106 N   0  0  0  0  0  0  0  0  0  0  0  0
   -2.9133  -11.6279   18.7578 C   0  0  0  0  0  0  0  0  0  0  0  0
    4.5688  -10.1291   29.5758 C   0  0  0  0  0  0  0  0  0  0  0  0
    2.1008   -9.0410   29.1852 N   0  0  0  0  0  0  0  0  0  0  0  0
    3.4829  -10.5697   30.2091 N   0  0  0  0  0  0  0  0  0  0  0  0
   -0.3363   -6.1172   27.5628 C   0  0  0  0  0  0  0  0  0  0  0  0
    3.0331   -7.4400   27.6362 C   0  0  0  0  0  0  0  0  0  0  0  0
    5.4553   -8.5933   27.9644 C   0  0  0  0  0  0  0  0  0  0  0  0
   -2.3870  -12.8440   19.2512 C   0  0  0  0  0  0  0  0  0  0  0  0
    0.5331   -7.6964   16.2751 C   0  0  0  0  0  0  0  0  0  0  0  0
   -0.6740  -10.8737   18.0482 C   0  0  0  0  0  0  0  0  0  0  0  0
    5.6751  -10.5870   29.7637 O   0  0  0  0  0  0  0  0  0  0  0  0
    1.7612   -5.6483   26.7172 C   0  0  0  0  0  0  0  0  0  0  0  0
    0.2221   -9.8326   17.4055 C   0  0  0  0  0  0  0  0  0  0  0  0
    4.3850   -9.0730   28.6745 C   0  0  0  0  0  0  0  0  0  0  0  0
  1  7  4  0
  1 22  4  0
  2 17  4  0
  2 20  4  0
  2 28  4  0
  3  6  1  0
  3 19  1  0
  4 19  1  0
  4 26  1  0
  5 17  4  0
  5 18  4  0
  6 20  1  0
  6 26  1  0
  7 24  4  0
  8 15  4  0
  8 24  4  0
  9 14  4  0
  9 21  4  0
 10 12  4  0
 10 27  4  0
 11 12  4  0
 11 23  4  0
 13 23  4  0
 13 27  4  0
 14 20  4  0
 15 22  4  0
 16 18  4  0
 16 25  2  0
 16 28  4  0
 21 28  4  0
 24 27  1  0
M  END
$$$$

 Created by Python create_sdf_string function

 28 31  0  0  0  0  0  0  0  0999 V2000
   -1.0054  -13.0622   19.1198 C   0  0  0  0  0  0  0  0  0  0  0  0
    3.1478   -8.5360   28.5161 C   0  0  0  0  0  0  0  0  0  0  0  0
    0.5798   -7.1906   27.9330 C   0  0  0  0  0  0  0  0  0  0  0  0
    0.3978   -5.1561   26.6955 C   0  0  0  0  0  0  0  0  0  0  0  0
    2.3063  -10.0533   30.0125 C   0  0  0  0  0  0  0  0  0  0  0  0
    1.8591   -6.8254   27.4685 N   0  0  0  0  0  0  0  0  0  0  0  0
   -0.2167  -12.1055   18.5568 C   0  0  0  0  0  0  0  0  0  0  0  0
   -2.0661  -10.6994   18.1916 C   0  0  0  0  0  0  0  0  0  0  0  0
    5.2703   -7.5691   27.1123 C   0  0  0  0  0  0  0  0  0  0  0  0
    1.6204   -9.9887   17.2935 C   0  0  0  0  0  0  0  0  0  0  0  0
    1.8931   -7.9265   16.2047 C   0  0  0  0  0  0  0  0  0  0  0  0
    2.4396   -9.0801   16.7132 C   0  0  0  0  0  0  0  0  0  0  0  0
   -0.2575   -8.6234   16.8582 C   0  0  0  0  0  0  0  0  0  0  0  0
    4.0614   -7.0367   27.0106 N   0  0  0  0  0  0  0  0  0  0  0  0
   -2.9133  -11.6279   18.7578 C   0  0  0  0  0  0  0  0  0  0  0  0
    4.5688  -10.1291   29.5758 C   0  0  0  0  0  0  0  0  0  0  0  0
    2.1008   -9.0410   29.1852 N   0  0  0  0  0  0  0  0  0  0  0  0
    3.4829  -10.5697   30.2091 N   0  0  0  0  0  0  0  0  0  0  0  0
   -0.3363   -6.1172   27.5628 C   0  0  0  0  0  0  0  0  0  0  0  0
    3.0331   -7.4400   27.6362 C   0  0  0  0  0  0  0  0  0  0  0  0
    5.4553   -8.5933   27.9644 C   0  0  0  0  0  0  0  0  0  0  0  0
   -2.3870  -12.8440   19.2512 C   0  0  0  0  0  0  0  0  0  0  0  0
    0.5331   -7.6964   16.2751 C   0  0  0  0  0  0  0  0  0  0  0  0
   -0.6740  -10.8737   18.0482 C   0  0  0  0  0  0  0  0  0  0  0  0
    5.6751  -10.5870   29.7637 O   0  0  0  0  0  0  0  0  0  0  0  0
    1.7612   -5.6483   26.7172 C   0  0  0  0  0  0  0  0  0  0  0  0
    0.2221   -9.8326   17.4055 C   0  0  0  0  0  0  0  0  0  0  0  0
    4.3850   -9.0730   28.6745 C   0  0  0  0  0  0  0  0  0  0  0  0
  1  7  4  0
  1 22  4  0
  2 17  4  0
  2 20  4  0
  2 28  4  0
  3  6  1  0
  3 19  1  0
  4 19  1  0
  4 26  1  0
  5 17  4  0
  5 18  4  0
  6 20  1  0
  6 26  1  0
  7 24  4  0
  8 15  4  0
  8 24  4  0
  9 14  4  0
  9 21  4  0
 10 12  4  0
 10 27  4  0
 11 12  4  0
 11 23  4  0
 13 23  4  0
 13 27  4  0
 14 20  4  0
 15 22  4  0
 16 18  4  0
 16 25  2  0
 16 28  4  0
 21 28  4  0
 24 27  1  0
M  END
$$$$

 Created by Python create_sdf_string function

 28 31  0  0  0  0  0  0  0  0999 V2000
   -1.0054  -13.0622   19.1198 C   0  0  0  0  0  0  0  0  0  0  0  0
    3.1478   -8.5360   28.5161 C   0  0  0  0  0  0  0  0  0  0  0  0
    0.5798   -7.1906   27.9330 C   0  0  0  0  0  0  0  0  0  0  0  0
    0.3978   -5.1561   26.6955 C   0  0  0  0  0  0  0  0  0  0  0  0
    2.3063  -10.0533   30.0125 C   0  0  0  0  0  0  0  0  0  0  0  0
    1.8591   -6.8254   27.4685 N   0  0  0  0  0  0  0  0  0  0  0  0
   -0.2167  -12.1055   18.5568 C   0  0  0  0  0  0  0  0  0  0  0  0
   -2.0661  -10.6994   18.1916 C   0  0  0  0  0  0  0  0  0  0  0  0
    5.2703   -7.5691   27.1123 C   0  0  0  0  0  0  0  0  0  0  0  0
    1.6204   -9.9887   17.2935 C   0  0  0  0  0  0  0  0  0  0  0  0
    1.8931   -7.9265   16.2047 C   0  0  0  0  0  0  0  0  0  0  0  0
    2.4396   -9.0801   16.7132 C   0  0  0  0  0  0  0  0  0  0  0  0
   -0.2575   -8.6234   16.8582 C   0  0  0  0  0  0  0  0  0  0  0  0
    4.0614   -7.0367   27.0106 N   0  0  0  0  0  0  0  0  0  0  0  0
   -2.9133  -11.6279   18.7578 C   0  0  0  0  0  0  0  0  0  0  0  0
    4.5688  -10.1291   29.5758 C   0  0  0  0  0  0  0  0  0  0  0  0
    2.1008   -9.0410   29.1852 N   0  0  0  0  0  0  0  0  0  0  0  0
    3.4829  -10.5697   30.2091 N   0  0  0  0  0  0  0  0  0  0  0  0
   -0.3363   -6.1172   27.5628 C   0  0  0  0  0  0  0  0  0  0  0  0
    3.0331   -7.4400   27.6362 C   0  0  0  0  0  0  0  0  0  0  0  0
    5.4553   -8.5933   27.9644 C   0  0  0  0  0  0  0  0  0  0  0  0
   -2.3870  -12.8440   19.2512 C   0  0  0  0  0  0  0  0  0  0  0  0
    0.5331   -7.6964   16.2751 C   0  0  0  0  0  0  0  0  0  0  0  0
   -0.6740  -10.8737   18.0482 C   0  0  0  0  0  0  0  0  0  0  0  0
    5.6751  -10.5870   29.7637 O   0  0  0  0  0  0  0  0  0  0  0  0
    1.7612   -5.6483   26.7172 C   0  0  0  0  0  0  0  0  0  0  0  0
    0.2221   -9.8326   17.4055 C   0  0  0  0  0  0  0  0  0  0  0  0
    4.3850   -9.0730   28.6745 C   0  0  0  0  0  0  0  0  0  0  0  0
  1  7  4  0
  1 22  4  0
  2 17  4  0
  2 20  4  0
  2 28  4  0
  3  6  1  0
  3 19  1  0
  4 19  1  0
  4 26  1  0
  5 17  4  0
  5 18  4  0
  6 20  1  0
  6 26  1  0
  7 24  4  0
  8 15  4  0
  8 24  4  0
  9 14  4  0
  9 21  4  0
 10 12  4  0
 10 27  4  0
 11 12  4  0
 11 23  4  0
 13 23  4  0
 13 27  4  0
 14 20  4  0
 15 22  4  0
 16 18  4  0
 16 25  2  0
 16 28  4  0
 21 28  4  0
 24 27  1  0
M  END
$$$$

 Created by Python create_sdf_string function

 28 31  0  0  0  0  0  0  0  0999 V2000
   -1.0054  -13.0622   19.1198 C   0  0  0  0  0  0  0  0  0  0  0  0
    3.1478   -8.5360   28.5161 C   0  0  0  0  0  0  0  0  0  0  0  0
    0.5798   -7.1906   27.9330 C   0  0  0  0  0  0  0  0  0  0  0  0
    0.3978   -5.1561   26.6955 C   0  0  0  0  0  0  0  0  0  0  0  0
    2.3063  -10.0533   30.0125 C   0  0  0  0  0  0  0  0  0  0  0  0
    1.8591   -6.8254   27.4685 N   0  0  0  0  0  0  0  0  0  0  0  0
   -0.2167  -12.1055   18.5568 C   0  0  0  0  0  0  0  0  0  0  0  0
   -2.0661  -10.6994   18.1916 C   0  0  0  0  0  0  0  0  0  0  0  0
    5.2703   -7.5691   27.1123 C   0  0  0  0  0  0  0  0  0  0  0  0
    1.6204   -9.9887   17.2935 C   0  0  0  0  0  0  0  0  0  0  0  0
    1.8931   -7.9265   16.2047 C   0  0  0  0  0  0  0  0  0  0  0  0
    2.4396   -9.0801   16.7132 C   0  0  0  0  0  0  0  0  0  0  0  0
   -0.2575   -8.6234   16.8582 C   0  0  0  0  0  0  0  0  0  0  0  0
    4.0614   -7.0367   27.0106 N   0  0  0  0  0  0  0  0  0  0  0  0
   -2.9133  -11.6279   18.7578 C   0  0  0  0  0  0  0  0  0  0  0  0
    4.5688  -10.1291   29.5758 C   0  0  0  0  0  0  0  0  0  0  0  0
    2.1008   -9.0410   29.1852 N   0  0  0  0  0  0  0  0  0  0  0  0
    3.4829  -10.5697   30.2091 N   0  0  0  0  0  0  0  0  0  0  0  0
   -0.3363   -6.1172   27.5628 C   0  0  0  0  0  0  0  0  0  0  0  0
    3.0331   -7.4400   27.6362 C   0  0  0  0  0  0  0  0  0  0  0  0
    5.4553   -8.5933   27.9644 C   0  0  0  0  0  0  0  0  0  0  0  0
   -2.3870  -12.8440   19.2512 C   0  0  0  0  0  0  0  0  0  0  0  0
    0.5331   -7.6964   16.2751 C   0  0  0  0  0  0  0  0  0  0  0  0
   -0.6740  -10.8737   18.0482 C   0  0  0  0  0  0  0  0  0  0  0  0
    5.6751  -10.5870   29.7637 O   0  0  0  0  0  0  0  0  0  0  0  0
    1.7612   -5.6483   26.7172 C   0  0  0  0  0  0  0  0  0  0  0  0
    0.2221   -9.8326   17.4055 C   0  0  0  0  0  0  0  0  0  0  0  0
    4.3850   -9.0730   28.6745 C   0  0  0  0  0  0  0  0  0  0  0  0
  1  7  4  0
  1 22  4  0
  2 17  4  0
  2 20  4  0
  2 28  4  0
  3  6  1  0
  3 19  1  0
  4 19  1  0
  4 26  1  0
  5 17  4  0
  5 18  4  0
  6 20  1  0
  6 26  1  0
  7 24  4  0
  8 15  4  0
  8 24  4  0
  9 14  4  0
  9 21  4  0
 10 12  4  0
 10 27  4  0
 11 12  4  0
 11 23  4  0
 13 23  4  0
 13 27  4  0
 14 20  4  0
 15 22  4  0
 16 18  4  0
 16 25  2  0
 16 28  4  0
 21 28  4  0
 24 27  1  0
M  END
$$$$

 Created by Python create_sdf_string function

 28 31  0  0  0  0  0  0  0  0999 V2000
   -1.0054  -13.0622   19.1198 C   0  0  0  0  0  0  0  0  0  0  0  0
    3.1478   -8.5360   28.5161 C   0  0  0  0  0  0  0  0  0  0  0  0
    0.5798   -7.1906   27.9330 C   0  0  0  0  0  0  0  0  0  0  0  0
    0.3978   -5.1561   26.6955 C   0  0  0  0  0  0  0  0  0  0  0  0
    2.3063  -10.0533   30.0125 C   0  0  0  0  0  0  0  0  0  0  0  0
    1.8591   -6.8254   27.4685 N   0  0  0  0  0  0  0  0  0  0  0  0
   -0.2167  -12.1055   18.5568 C   0  0  0  0  0  0  0  0  0  0  0  0
   -2.0661  -10.6994   18.1916 C   0  0  0  0  0  0  0  0  0  0  0  0
    5.2703   -7.5691   27.1123 C   0  0  0  0  0  0  0  0  0  0  0  0
    1.6204   -9.9887   17.2935 C   0  0  0  0  0  0  0  0  0  0  0  0
    1.8931   -7.9265   16.2047 C   0  0  0  0  0  0  0  0  0  0  0  0
    2.4396   -9.0801   16.7132 C   0  0  0  0  0  0  0  0  0  0  0  0
   -0.2575   -8.6234   16.8582 C   0  0  0  0  0  0  0  0  0  0  0  0
    4.0614   -7.0367   27.0106 N   0  0  0  0  0  0  0  0  0  0  0  0
   -2.9133  -11.6279   18.7578 C   0  0  0  0  0  0  0  0  0  0  0  0
    4.5688  -10.1291   29.5758 C   0  0  0  0  0  0  0  0  0  0  0  0
    2.1008   -9.0410   29.1852 N   0  0  0  0  0  0  0  0  0  0  0  0
    3.4829  -10.5697   30.2091 N   0  0  0  0  0  0  0  0  0  0  0  0
   -0.3363   -6.1172   27.5628 C   0  0  0  0  0  0  0  0  0  0  0  0
    3.0331   -7.4400   27.6362 C   0  0  0  0  0  0  0  0  0  0  0  0
    5.4553   -8.5933   27.9644 C   0  0  0  0  0  0  0  0  0  0  0  0
   -2.3870  -12.8440   19.2512 C   0  0  0  0  0  0  0  0  0  0  0  0
    0.5331   -7.6964   16.2751 C   0  0  0  0  0  0  0  0  0  0  0  0
   -0.6740  -10.8737   18.0482 C   0  0  0  0  0  0  0  0  0  0  0  0
    5.6751  -10.5870   29.7637 O   0  0  0  0  0  0  0  0  0  0  0  0
    1.7612   -5.6483   26.7172 C   0  0  0  0  0  0  0  0  0  0  0  0
    0.2221   -9.8326   17.4055 C   0  0  0  0  0  0  0  0  0  0  0  0
    4.3850   -9.0730   28.6745 C   0  0  0  0  0  0  0  0  0  0  0  0
  1  7  4  0
  1 22  4  0
  2 17  4  0
  2 20  4  0
  2 28  4  0
  3  6  1  0
  3 19  1  0
  4 19  1  0
  4 26  1  0
  5 17  4  0
  5 18  4  0
  6 20  1  0
  6 26  1  0
  7 24  4  0
  8 15  4  0
  8 24  4  0
  9 14  4  0
  9 21  4  0
 10 12  4  0
 10 27  4  0
 11 12  4  0
 11 23  4  0
 13 23  4  0
 13 27  4  0
 14 20  4  0
 15 22  4  0
 16 18  4  0
 16 25  2  0
 16 28  4  0
 21 28  4  0
 24 27  1  0
M  END
$$$$

 Created by Python create_sdf_string function

 28 31  0  0  0  0  0  0  0  0999 V2000
   -1.0054  -13.0622   19.1198 C   0  0  0  0  0  0  0  0  0  0  0  0
    3.1478   -8.5360   28.5161 C   0  0  0  0  0  0  0  0  0  0  0  0
    0.5798   -7.1906   27.9330 C   0  0  0  0  0  0  0  0  0  0  0  0
    0.3978   -5.1561   26.6955 C   0  0  0  0  0  0  0  0  0  0  0  0
    2.3063  -10.0533   30.0125 C   0  0  0  0  0  0  0  0  0  0  0  0
    1.8591   -6.8254   27.4685 N   0  0  0  0  0  0  0  0  0  0  0  0
   -0.2167  -12.1055   18.5568 C   0  0  0  0  0  0  0  0  0  0  0  0
   -2.0661  -10.6994   18.1916 C   0  0  0  0  0  0  0  0  0  0  0  0
    5.2703   -7.5691   27.1123 C   0  0  0  0  0  0  0  0  0  0  0  0
    1.6204   -9.9887   17.2935 C   0  0  0  0  0  0  0  0  0  0  0  0
    1.8931   -7.9265   16.2047 C   0  0  0  0  0  0  0  0  0  0  0  0
    2.4396   -9.0801   16.7132 C   0  0  0  0  0  0  0  0  0  0  0  0
   -0.2575   -8.6234   16.8582 C   0  0  0  0  0  0  0  0  0  0  0  0
    4.0614   -7.0367   27.0106 N   0  0  0  0  0  0  0  0  0  0  0  0
   -2.9133  -11.6279   18.7578 C   0  0  0  0  0  0  0  0  0  0  0  0
    4.5688  -10.1291   29.5758 C   0  0  0  0  0  0  0  0  0  0  0  0
    2.1008   -9.0410   29.1852 N   0  0  0  0  0  0  0  0  0  0  0  0
    3.4829  -10.5697   30.2091 N   0  0  0  0  0  0  0  0  0  0  0  0
   -0.3363   -6.1172   27.5628 C   0  0  0  0  0  0  0  0  0  0  0  0
    3.0331   -7.4400   27.6362 C   0  0  0  0  0  0  0  0  0  0  0  0
    5.4553   -8.5933   27.9644 C   0  0  0  0  0  0  0  0  0  0  0  0
   -2.3870  -12.8440   19.2512 C   0  0  0  0  0  0  0  0  0  0  0  0
    0.5331   -7.6964   16.2751 C   0  0  0  0  0  0  0  0  0  0  0  0
   -0.6740  -10.8737   18.0482 C   0  0  0  0  0  0  0  0  0  0  0  0
    5.6751  -10.5870   29.7637 O   0  0  0  0  0  0  0  0  0  0  0  0
    1.7612   -5.6483   26.7172 C   0  0  0  0  0  0  0  0  0  0  0  0
    0.2221   -9.8326   17.4055 C   0  0  0  0  0  0  0  0  0  0  0  0
    4.3850   -9.0730   28.6745 C   0  0  0  0  0  0  0  0  0  0  0  0
  1  7  4  0
  1 22  4  0
  2 17  4  0
  2 20  4  0
  2 28  4  0
  3  6  1  0
  3 19  1  0
  4 19  1  0
  4 26  1  0
  5 17  4  0
  5 18  4  0
  6 20  1  0
  6 26  1  0
  7 24  4  0
  8 15  4  0
  8 24  4  0
  9 14  4  0
  9 21  4  0
 10 12  4  0
 10 27  4  0
 11 12  4  0
 11 23  4  0
 13 23  4  0
 13 27  4  0
 14 20  4  0
 15 22  4  0
 16 18  4  0
 16 25  2  0
 16 28  4  0
 21 28  4  0
 24 27  1  0
M  END
$$$$

 Created by Python create_sdf_string function

 28 31  0  0  0  0  0  0  0  0999 V2000
   -1.0054  -13.0622   19.1198 C   0  0  0  0  0  0  0  0  0  0  0  0
    3.1478   -8.5360   28.5161 C   0  0  0  0  0  0  0  0  0  0  0  0
    0.5798   -7.1906   27.9330 C   0  0  0  0  0  0  0  0  0  0  0  0
    0.3978   -5.1561   26.6955 C   0  0  0  0  0  0  0  0  0  0  0  0
    2.3063  -10.0533   30.0125 C   0  0  0  0  0  0  0  0  0  0  0  0
    1.8591   -6.8254   27.4685 N   0  0  0  0  0  0  0  0  0  0  0  0
   -0.2167  -12.1055   18.5568 C   0  0  0  0  0  0  0  0  0  0  0  0
   -2.0661  -10.6994   18.1916 C   0  0  0  0  0  0  0  0  0  0  0  0
    5.2703   -7.5691   27.1123 C   0  0  0  0  0  0  0  0  0  0  0  0
    1.6204   -9.9887   17.2935 C   0  0  0  0  0  0  0  0  0  0  0  0
    1.8931   -7.9265   16.2047 C   0  0  0  0  0  0  0  0  0  0  0  0
    2.4396   -9.0801   16.7132 C   0  0  0  0  0  0  0  0  0  0  0  0
   -0.2575   -8.6234   16.8582 C   0  0  0  0  0  0  0  0  0  0  0  0
    4.0614   -7.0367   27.0106 N   0  0  0  0  0  0  0  0  0  0  0  0
   -2.9133  -11.6279   18.7578 C   0  0  0  0  0  0  0  0  0  0  0  0
    4.5688  -10.1291   29.5758 C   0  0  0  0  0  0  0  0  0  0  0  0
    2.1008   -9.0410   29.1852 N   0  0  0  0  0  0  0  0  0  0  0  0
    3.4829  -10.5697   30.2091 N   0  0  0  0  0  0  0  0  0  0  0  0
   -0.3363   -6.1172   27.5628 C   0  0  0  0  0  0  0  0  0  0  0  0
    3.0331   -7.4400   27.6362 C   0  0  0  0  0  0  0  0  0  0  0  0
    5.4553   -8.5933   27.9644 C   0  0  0  0  0  0  0  0  0  0  0  0
   -2.3870  -12.8440   19.2512 C   0  0  0  0  0  0  0  0  0  0  0  0
    0.5331   -7.6964   16.2751 C   0  0  0  0  0  0  0  0  0  0  0  0
   -0.6740  -10.8737   18.0482 C   0  0  0  0  0  0  0  0  0  0  0  0
    5.6751  -10.5870   29.7637 O   0  0  0  0  0  0  0  0  0  0  0  0
    1.7612   -5.6483   26.7172 C   0  0  0  0  0  0  0  0  0  0  0  0
    0.2221   -9.8326   17.4055 C   0  0  0  0  0  0  0  0  0  0  0  0
    4.3850   -9.0730   28.6745 C   0  0  0  0  0  0  0  0  0  0  0  0
  1  7  4  0
  1 22  4  0
  2 17  4  0
  2 20  4  0
  2 28  4  0
  3  6  1  0
  3 19  1  0
  4 19  1  0
  4 26  1  0
  5 17  4  0
  5 18  4  0
  6 20  1  0
  6 26  1  0
  7 24  4  0
  8 15  4  0
  8 24  4  0
  9 14  4  0
  9 21  4  0
 10 12  4  0
 10 27  4  0
 11 12  4  0
 11 23  4  0
 13 23  4  0
 13 27  4  0
 14 20  4  0
 15 22  4  0
 16 18  4  0
 16 25  2  0
 16 28  4  0
 21 28  4  0
 24 27  1  0
M  END
$$$$

 Created by Python create_sdf_string function

 28 31  0  0  0  0  0  0  0  0999 V2000
   -1.0054  -13.0622   19.1198 C   0  0  0  0  0  0  0  0  0  0  0  0
    3.1478   -8.5360   28.5161 C   0  0  0  0  0  0  0  0  0  0  0  0
    0.5798   -7.1906   27.9330 C   0  0  0  0  0  0  0  0  0  0  0  0
    0.3978   -5.1561   26.6955 C   0  0  0  0  0  0  0  0  0  0  0  0
    2.3063  -10.0533   30.0125 C   0  0  0  0  0  0  0  0  0  0  0  0
    1.8591   -6.8254   27.4685 N   0  0  0  0  0  0  0  0  0  0  0  0
   -0.2167  -12.1055   18.5568 C   0  0  0  0  0  0  0  0  0  0  0  0
   -2.0661  -10.6994   18.1916 C   0  0  0  0  0  0  0  0  0  0  0  0
    5.2703   -7.5691   27.1123 C   0  0  0  0  0  0  0  0  0  0  0  0
    1.6204   -9.9887   17.2935 C   0  0  0  0  0  0  0  0  0  0  0  0
    1.8931   -7.9265   16.2047 C   0  0  0  0  0  0  0  0  0  0  0  0
    2.4396   -9.0801   16.7132 C   0  0  0  0  0  0  0  0  0  0  0  0
   -0.2575   -8.6234   16.8582 C   0  0  0  0  0  0  0  0  0  0  0  0
    4.0614   -7.0367   27.0106 N   0  0  0  0  0  0  0  0  0  0  0  0
   -2.9133  -11.6279   18.7578 C   0  0  0  0  0  0  0  0  0  0  0  0
    4.5688  -10.1291   29.5758 C   0  0  0  0  0  0  0  0  0  0  0  0
    2.1008   -9.0410   29.1852 N   0  0  0  0  0  0  0  0  0  0  0  0
    3.4829  -10.5697   30.2091 N   0  0  0  0  0  0  0  0  0  0  0  0
   -0.3363   -6.1172   27.5628 C   0  0  0  0  0  0  0  0  0  0  0  0
    3.0331   -7.4400   27.6362 C   0  0  0  0  0  0  0  0  0  0  0  0
    5.4553   -8.5933   27.9644 C   0  0  0  0  0  0  0  0  0  0  0  0
   -2.3870  -12.8440   19.2512 C   0  0  0  0  0  0  0  0  0  0  0  0
    0.5331   -7.6964   16.2751 C   0  0  0  0  0  0  0  0  0  0  0  0
   -0.6740  -10.8737   18.0482 C   0  0  0  0  0  0  0  0  0  0  0  0
    5.6751  -10.5870   29.7637 O   0  0  0  0  0  0  0  0  0  0  0  0
    1.7612   -5.6483   26.7172 C   0  0  0  0  0  0  0  0  0  0  0  0
    0.2221   -9.8326   17.4055 C   0  0  0  0  0  0  0  0  0  0  0  0
    4.3850   -9.0730   28.6745 C   0  0  0  0  0  0  0  0  0  0  0  0
  1  7  4  0
  1 22  4  0
  2 17  4  0
  2 20  4  0
  2 28  4  0
  3  6  1  0
  3 19  1  0
  4 19  1  0
  4 26  1  0
  5 17  4  0
  5 18  4  0
  6 20  1  0
  6 26  1  0
  7 24  4  0
  8 15  4  0
  8 24  4  0
  9 14  4  0
  9 21  4  0
 10 12  4  0
 10 27  4  0
 11 12  4  0
 11 23  4  0
 13 23  4  0
 13 27  4  0
 14 20  4  0
 15 22  4  0
 16 18  4  0
 16 25  2  0
 16 28  4  0
 21 28  4  0
 24 27  1  0
M  END
$$$$

 Created by Python create_sdf_string function

 28 31  0  0  0  0  0  0  0  0999 V2000
   -1.0054  -13.0622   19.1198 C   0  0  0  0  0  0  0  0  0  0  0  0
    3.1478   -8.5360   28.5161 C   0  0  0  0  0  0  0  0  0  0  0  0
    0.5798   -7.1906   27.9330 C   0  0  0  0  0  0  0  0  0  0  0  0
    0.3978   -5.1561   26.6955 C   0  0  0  0  0  0  0  0  0  0  0  0
    2.3063  -10.0533   30.0125 C   0  0  0  0  0  0  0  0  0  0  0  0
    1.8591   -6.8254   27.4685 N   0  0  0  0  0  0  0  0  0  0  0  0
   -0.2167  -12.1055   18.5568 C   0  0  0  0  0  0  0  0  0  0  0  0
   -2.0661  -10.6994   18.1916 C   0  0  0  0  0  0  0  0  0  0  0  0
    5.2703   -7.5691   27.1123 C   0  0  0  0  0  0  0  0  0  0  0  0
    1.6204   -9.9887   17.2935 C   0  0  0  0  0  0  0  0  0  0  0  0
    1.8931   -7.9265   16.2047 C   0  0  0  0  0  0  0  0  0  0  0  0
    2.4396   -9.0801   16.7132 C   0  0  0  0  0  0  0  0  0  0  0  0
   -0.2575   -8.6234   16.8582 C   0  0  0  0  0  0  0  0  0  0  0  0
    4.0614   -7.0367   27.0106 N   0  0  0  0  0  0  0  0  0  0  0  0
   -2.9133  -11.6279   18.7578 C   0  0  0  0  0  0  0  0  0  0  0  0
    4.5688  -10.1291   29.5758 C   0  0  0  0  0  0  0  0  0  0  0  0
    2.1008   -9.0410   29.1852 N   0  0  0  0  0  0  0  0  0  0  0  0
    3.4829  -10.5697   30.2091 N   0  0  0  0  0  0  0  0  0  0  0  0
   -0.3363   -6.1172   27.5628 C   0  0  0  0  0  0  0  0  0  0  0  0
    3.0331   -7.4400   27.6362 C   0  0  0  0  0  0  0  0  0  0  0  0
    5.4553   -8.5933   27.9644 C   0  0  0  0  0  0  0  0  0  0  0  0
   -2.3870  -12.8440   19.2512 C   0  0  0  0  0  0  0  0  0  0  0  0
    0.5331   -7.6964   16.2751 C   0  0  0  0  0  0  0  0  0  0  0  0
   -0.6740  -10.8737   18.0482 C   0  0  0  0  0  0  0  0  0  0  0  0
    5.6751  -10.5870   29.7637 O   0  0  0  0  0  0  0  0  0  0  0  0
    1.7612   -5.6483   26.7172 C   0  0  0  0  0  0  0  0  0  0  0  0
    0.2221   -9.8326   17.4055 C   0  0  0  0  0  0  0  0  0  0  0  0
    4.3850   -9.0730   28.6745 C   0  0  0  0  0  0  0  0  0  0  0  0
  1  7  4  0
  1 22  4  0
  2 17  4  0
  2 20  4  0
  2 28  4  0
  3  6  1  0
  3 19  1  0
  4 19  1  0
  4 26  1  0
  5 17  4  0
  5 18  4  0
  6 20  1  0
  6 26  1  0
  7 24  4  0
  8 15  4  0
  8 24  4  0
  9 14  4  0
  9 21  4  0
 10 12  4  0
 10 27  4  0
 11 12  4  0
 11 23  4  0
 13 23  4  0
 13 27  4  0
 14 20  4  0
 15 22  4  0
 16 18  4  0
 16 25  2  0
 16 28  4  0
 21 28  4  0
 24 27  1  0
M  END
$$$$

 Created by Python create_sdf_string function

 28 31  0  0  0  0  0  0  0  0999 V2000
   -1.0054  -13.0622   19.1198 C   0  0  0  0  0  0  0  0  0  0  0  0
    3.1478   -8.5360   28.5161 C   0  0  0  0  0  0  0  0  0  0  0  0
    0.5798   -7.1906   27.9330 C   0  0  0  0  0  0  0  0  0  0  0  0
    0.3978   -5.1561   26.6955 C   0  0  0  0  0  0  0  0  0  0  0  0
    2.3063  -10.0533   30.0125 C   0  0  0  0  0  0  0  0  0  0  0  0
    1.8591   -6.8254   27.4685 N   0  0  0  0  0  0  0  0  0  0  0  0
   -0.2167  -12.1055   18.5568 C   0  0  0  0  0  0  0  0  0  0  0  0
   -2.0661  -10.6994   18.1916 C   0  0  0  0  0  0  0  0  0  0  0  0
    5.2703   -7.5691   27.1123 C   0  0  0  0  0  0  0  0  0  0  0  0
    1.6204   -9.9887   17.2935 C   0  0  0  0  0  0  0  0  0  0  0  0
    1.8931   -7.9265   16.2047 C   0  0  0  0  0  0  0  0  0  0  0  0
    2.4396   -9.0801   16.7132 C   0  0  0  0  0  0  0  0  0  0  0  0
   -0.2575   -8.6234   16.8582 C   0  0  0  0  0  0  0  0  0  0  0  0
    4.0614   -7.0367   27.0106 N   0  0  0  0  0  0  0  0  0  0  0  0
   -2.9133  -11.6279   18.7578 C   0  0  0  0  0  0  0  0  0  0  0  0
    4.5688  -10.1291   29.5758 C   0  0  0  0  0  0  0  0  0  0  0  0
    2.1008   -9.0410   29.1852 N   0  0  0  0  0  0  0  0  0  0  0  0
    3.4829  -10.5697   30.2091 N   0  0  0  0  0  0  0  0  0  0  0  0
   -0.3363   -6.1172   27.5628 C   0  0  0  0  0  0  0  0  0  0  0  0
    3.0331   -7.4400   27.6362 C   0  0  0  0  0  0  0  0  0  0  0  0
    5.4553   -8.5933   27.9644 C   0  0  0  0  0  0  0  0  0  0  0  0
   -2.3870  -12.8440   19.2512 C   0  0  0  0  0  0  0  0  0  0  0  0
    0.5331   -7.6964   16.2751 C   0  0  0  0  0  0  0  0  0  0  0  0
   -0.6740  -10.8737   18.0482 C   0  0  0  0  0  0  0  0  0  0  0  0
    5.6751  -10.5870   29.7637 O   0  0  0  0  0  0  0  0  0  0  0  0
    1.7612   -5.6483   26.7172 C   0  0  0  0  0  0  0  0  0  0  0  0
    0.2221   -9.8326   17.4055 C   0  0  0  0  0  0  0  0  0  0  0  0
    4.3850   -9.0730   28.6745 C   0  0  0  0  0  0  0  0  0  0  0  0
  1  7  4  0
  1 22  4  0
  2 17  4  0
  2 20  4  0
  2 28  4  0
  3  6  1  0
  3 19  1  0
  4 19  1  0
  4 26  1  0
  5 17  4  0
  5 18  4  0
  6 20  1  0
  6 26  1  0
  7 24  4  0
  8 15  4  0
  8 24  4  0
  9 14  4  0
  9 21  4  0
 10 12  4  0
 10 27  4  0
 11 12  4  0
 11 23  4  0
 13 23  4  0
 13 27  4  0
 14 20  4  0
 15 22  4  0
 16 18  4  0
 16 25  2  0
 16 28  4  0
 21 28  4  0
 24 27  1  0
M  END
$$$$

 Created by Python create_sdf_string function

 28 31  0  0  0  0  0  0  0  0999 V2000
   -1.0054  -13.0622   19.1198 C   0  0  0  0  0  0  0  0  0  0  0  0
    3.1478   -8.5360   28.5161 C   0  0  0  0  0  0  0  0  0  0  0  0
    0.5798   -7.1906   27.9330 C   0  0  0  0  0  0  0  0  0  0  0  0
    0.3978   -5.1561   26.6955 C   0  0  0  0  0  0  0  0  0  0  0  0
    2.3063  -10.0533   30.0125 C   0  0  0  0  0  0  0  0  0  0  0  0
    1.8591   -6.8254   27.4685 N   0  0  0  0  0  0  0  0  0  0  0  0
   -0.2167  -12.1055   18.5568 C   0  0  0  0  0  0  0  0  0  0  0  0
   -2.0661  -10.6994   18.1916 C   0  0  0  0  0  0  0  0  0  0  0  0
    5.2703   -7.5691   27.1123 C   0  0  0  0  0  0  0  0  0  0  0  0
    1.6204   -9.9887   17.2935 C   0  0  0  0  0  0  0  0  0  0  0  0
    1.8931   -7.9265   16.2047 C   0  0  0  0  0  0  0  0  0  0  0  0
    2.4396   -9.0801   16.7132 C   0  0  0  0  0  0  0  0  0  0  0  0
   -0.2575   -8.6234   16.8582 C   0  0  0  0  0  0  0  0  0  0  0  0
    4.0614   -7.0367   27.0106 N   0  0  0  0  0  0  0  0  0  0  0  0
   -2.9133  -11.6279   18.7578 C   0  0  0  0  0  0  0  0  0  0  0  0
    4.5688  -10.1291   29.5758 C   0  0  0  0  0  0  0  0  0  0  0  0
    2.1008   -9.0410   29.1852 N   0  0  0  0  0  0  0  0  0  0  0  0
    3.4829  -10.5697   30.2091 N   0  0  0  0  0  0  0  0  0  0  0  0
   -0.3363   -6.1172   27.5628 C   0  0  0  0  0  0  0  0  0  0  0  0
    3.0331   -7.4400   27.6362 C   0  0  0  0  0  0  0  0  0  0  0  0
    5.4553   -8.5933   27.9644 C   0  0  0  0  0  0  0  0  0  0  0  0
   -2.3870  -12.8440   19.2512 C   0  0  0  0  0  0  0  0  0  0  0  0
    0.5331   -7.6964   16.2751 C   0  0  0  0  0  0  0  0  0  0  0  0
   -0.6740  -10.8737   18.0482 C   0  0  0  0  0  0  0  0  0  0  0  0
    5.6751  -10.5870   29.7637 O   0  0  0  0  0  0  0  0  0  0  0  0
    1.7612   -5.6483   26.7172 C   0  0  0  0  0  0  0  0  0  0  0  0
    0.2221   -9.8326   17.4055 C   0  0  0  0  0  0  0  0  0  0  0  0
    4.3850   -9.0730   28.6745 C   0  0  0  0  0  0  0  0  0  0  0  0
  1  7  4  0
  1 22  4  0
  2 17  4  0
  2 20  4  0
  2 28  4  0
  3  6  1  0
  3 19  1  0
  4 19  1  0
  4 26  1  0
  5 17  4  0
  5 18  4  0
  6 20  1  0
  6 26  1  0
  7 24  4  0
  8 15  4  0
  8 24  4  0
  9 14  4  0
  9 21  4  0
 10 12  4  0
 10 27  4  0
 11 12  4  0
 11 23  4  0
 13 23  4  0
 13 27  4  0
 14 20  4  0
 15 22  4  0
 16 18  4  0
 16 25  2  0
 16 28  4  0
 21 28  4  0
 24 27  1  0
M  END
$$$$

 Created by Python create_sdf_string function

 28 31  0  0  0  0  0  0  0  0999 V2000
   -1.0054  -13.0622   19.1198 C   0  0  0  0  0  0  0  0  0  0  0  0
    3.1478   -8.5360   28.5161 C   0  0  0  0  0  0  0  0  0  0  0  0
    0.5798   -7.1906   27.9330 C   0  0  0  0  0  0  0  0  0  0  0  0
    0.3978   -5.1561   26.6955 C   0  0  0  0  0  0  0  0  0  0  0  0
    2.3063  -10.0533   30.0125 C   0  0  0  0  0  0  0  0  0  0  0  0
    1.8591   -6.8254   27.4685 N   0  0  0  0  0  0  0  0  0  0  0  0
   -0.2167  -12.1055   18.5568 C   0  0  0  0  0  0  0  0  0  0  0  0
   -2.0661  -10.6994   18.1916 C   0  0  0  0  0  0  0  0  0  0  0  0
    5.2703   -7.5691   27.1123 C   0  0  0  0  0  0  0  0  0  0  0  0
    1.6204   -9.9887   17.2935 C   0  0  0  0  0  0  0  0  0  0  0  0
    1.8931   -7.9265   16.2047 C   0  0  0  0  0  0  0  0  0  0  0  0
    2.4396   -9.0801   16.7132 C   0  0  0  0  0  0  0  0  0  0  0  0
   -0.2575   -8.6234   16.8582 C   0  0  0  0  0  0  0  0  0  0  0  0
    4.0614   -7.0367   27.0106 N   0  0  0  0  0  0  0  0  0  0  0  0
   -2.9133  -11.6279   18.7578 C   0  0  0  0  0  0  0  0  0  0  0  0
    4.5688  -10.1291   29.5758 C   0  0  0  0  0  0  0  0  0  0  0  0
    2.1008   -9.0410   29.1852 N   0  0  0  0  0  0  0  0  0  0  0  0
    3.4829  -10.5697   30.2091 N   0  0  0  0  0  0  0  0  0  0  0  0
   -0.3363   -6.1172   27.5628 C   0  0  0  0  0  0  0  0  0  0  0  0
    3.0331   -7.4400   27.6362 C   0  0  0  0  0  0  0  0  0  0  0  0
    5.4553   -8.5933   27.9644 C   0  0  0  0  0  0  0  0  0  0  0  0
   -2.3870  -12.8440   19.2512 C   0  0  0  0  0  0  0  0  0  0  0  0
    0.5331   -7.6964   16.2751 C   0  0  0  0  0  0  0  0  0  0  0  0
   -0.6740  -10.8737   18.0482 C   0  0  0  0  0  0  0  0  0  0  0  0
    5.6751  -10.5870   29.7637 O   0  0  0  0  0  0  0  0  0  0  0  0
    1.7612   -5.6483   26.7172 C   0  0  0  0  0  0  0  0  0  0  0  0
    0.2221   -9.8326   17.4055 C   0  0  0  0  0  0  0  0  0  0  0  0
    4.3850   -9.0730   28.6745 C   0  0  0  0  0  0  0  0  0  0  0  0
  1  7  4  0
  1 22  4  0
  2 17  4  0
  2 20  4  0
  2 28  4  0
  3  6  1  0
  3 19  1  0
  4 19  1  0
  4 26  1  0
  5 17  4  0
  5 18  4  0
  6 20  1  0
  6 26  1  0
  7 24  4  0
  8 15  4  0
  8 24  4  0
  9 14  4  0
  9 21  4  0
 10 12  4  0
 10 27  4  0
 11 12  4  0
 11 23  4  0
 13 23  4  0
 13 27  4  0
 14 20  4  0
 15 22  4  0
 16 18  4  0
 16 25  2  0
 16 28  4  0
 21 28  4  0
 24 27  1  0
M  END
$$$$

 Created by Python create_sdf_string function

 28 31  0  0  0  0  0  0  0  0999 V2000
   -1.0054  -13.0622   19.1198 C   0  0  0  0  0  0  0  0  0  0  0  0
    3.1478   -8.5360   28.5161 C   0  0  0  0  0  0  0  0  0  0  0  0
    0.5798   -7.1906   27.9330 C   0  0  0  0  0  0  0  0  0  0  0  0
    0.3978   -5.1561   26.6955 C   0  0  0  0  0  0  0  0  0  0  0  0
    2.3063  -10.0533   30.0125 C   0  0  0  0  0  0  0  0  0  0  0  0
    1.8591   -6.8254   27.4685 N   0  0  0  0  0  0  0  0  0  0  0  0
   -0.2167  -12.1055   18.5568 C   0  0  0  0  0  0  0  0  0  0  0  0
   -2.0661  -10.6994   18.1916 C   0  0  0  0  0  0  0  0  0  0  0  0
    5.2703   -7.5691   27.1123 C   0  0  0  0  0  0  0  0  0  0  0  0
    1.6204   -9.9887   17.2935 C   0  0  0  0  0  0  0  0  0  0  0  0
    1.8931   -7.9265   16.2047 C   0  0  0  0  0  0  0  0  0  0  0  0
    2.4396   -9.0801   16.7132 C   0  0  0  0  0  0  0  0  0  0  0  0
   -0.2575   -8.6234   16.8582 C   0  0  0  0  0  0  0  0  0  0  0  0
    4.0614   -7.0367   27.0106 N   0  0  0  0  0  0  0  0  0  0  0  0
   -2.9133  -11.6279   18.7578 C   0  0  0  0  0  0  0  0  0  0  0  0
    4.5688  -10.1291   29.5758 C   0  0  0  0  0  0  0  0  0  0  0  0
    2.1008   -9.0410   29.1852 N   0  0  0  0  0  0  0  0  0  0  0  0
    3.4829  -10.5697   30.2091 N   0  0  0  0  0  0  0  0  0  0  0  0
   -0.3363   -6.1172   27.5628 C   0  0  0  0  0  0  0  0  0  0  0  0
    3.0331   -7.4400   27.6362 C   0  0  0  0  0  0  0  0  0  0  0  0
    5.4553   -8.5933   27.9644 C   0  0  0  0  0  0  0  0  0  0  0  0
   -2.3870  -12.8440   19.2512 C   0  0  0  0  0  0  0  0  0  0  0  0
    0.5331   -7.6964   16.2751 C   0  0  0  0  0  0  0  0  0  0  0  0
   -0.6740  -10.8737   18.0482 C   0  0  0  0  0  0  0  0  0  0  0  0
    5.6751  -10.5870   29.7637 O   0  0  0  0  0  0  0  0  0  0  0  0
    1.7612   -5.6483   26.7172 C   0  0  0  0  0  0  0  0  0  0  0  0
    0.2221   -9.8326   17.4055 C   0  0  0  0  0  0  0  0  0  0  0  0
    4.3850   -9.0730   28.6745 C   0  0  0  0  0  0  0  0  0  0  0  0
  1  7  4  0
  1 22  4  0
  2 17  4  0
  2 20  4  0
  2 28  4  0
  3  6  1  0
  3 19  1  0
  4 19  1  0
  4 26  1  0
  5 17  4  0
  5 18  4  0
  6 20  1  0
  6 26  1  0
  7 24  4  0
  8 15  4  0
  8 24  4  0
  9 14  4  0
  9 21  4  0
 10 12  4  0
 10 27  4  0
 11 12  4  0
 11 23  4  0
 13 23  4  0
 13 27  4  0
 14 20  4  0
 15 22  4  0
 16 18  4  0
 16 25  2  0
 16 28  4  0
 21 28  4  0
 24 27  1  0
M  END
$$$$

 Created by Python create_sdf_string function

 28 31  0  0  0  0  0  0  0  0999 V2000
   -1.0054  -13.0622   19.1198 C   0  0  0  0  0  0  0  0  0  0  0  0
    3.1478   -8.5360   28.5161 C   0  0  0  0  0  0  0  0  0  0  0  0
    0.5798   -7.1906   27.9330 C   0  0  0  0  0  0  0  0  0  0  0  0
    0.3978   -5.1561   26.6955 C   0  0  0  0  0  0  0  0  0  0  0  0
    2.3063  -10.0533   30.0125 C   0  0  0  0  0  0  0  0  0  0  0  0
    1.8591   -6.8254   27.4685 N   0  0  0  0  0  0  0  0  0  0  0  0
   -0.2167  -12.1055   18.5568 C   0  0  0  0  0  0  0  0  0  0  0  0
   -2.0661  -10.6994   18.1916 C   0  0  0  0  0  0  0  0  0  0  0  0
    5.2703   -7.5691   27.1123 C   0  0  0  0  0  0  0  0  0  0  0  0
    1.6204   -9.9887   17.2935 C   0  0  0  0  0  0  0  0  0  0  0  0
    1.8931   -7.9265   16.2047 C   0  0  0  0  0  0  0  0  0  0  0  0
    2.4396   -9.0801   16.7132 C   0  0  0  0  0  0  0  0  0  0  0  0
   -0.2575   -8.6234   16.8582 C   0  0  0  0  0  0  0  0  0  0  0  0
    4.0614   -7.0367   27.0106 N   0  0  0  0  0  0  0  0  0  0  0  0
   -2.9133  -11.6279   18.7578 C   0  0  0  0  0  0  0  0  0  0  0  0
    4.5688  -10.1291   29.5758 C   0  0  0  0  0  0  0  0  0  0  0  0
    2.1008   -9.0410   29.1852 N   0  0  0  0  0  0  0  0  0  0  0  0
    3.4829  -10.5697   30.2091 N   0  0  0  0  0  0  0  0  0  0  0  0
   -0.3363   -6.1172   27.5628 C   0  0  0  0  0  0  0  0  0  0  0  0
    3.0331   -7.4400   27.6362 C   0  0  0  0  0  0  0  0  0  0  0  0
    5.4553   -8.5933   27.9644 C   0  0  0  0  0  0  0  0  0  0  0  0
   -2.3870  -12.8440   19.2512 C   0  0  0  0  0  0  0  0  0  0  0  0
    0.5331   -7.6964   16.2751 C   0  0  0  0  0  0  0  0  0  0  0  0
   -0.6740  -10.8737   18.0482 C   0  0  0  0  0  0  0  0  0  0  0  0
    5.6751  -10.5870   29.7637 O   0  0  0  0  0  0  0  0  0  0  0  0
    1.7612   -5.6483   26.7172 C   0  0  0  0  0  0  0  0  0  0  0  0
    0.2221   -9.8326   17.4055 C   0  0  0  0  0  0  0  0  0  0  0  0
    4.3850   -9.0730   28.6745 C   0  0  0  0  0  0  0  0  0  0  0  0
  1  7  4  0
  1 22  4  0
  2 17  4  0
  2 20  4  0
  2 28  4  0
  3  6  1  0
  3 19  1  0
  4 19  1  0
  4 26  1  0
  5 17  4  0
  5 18  4  0
  6 20  1  0
  6 26  1  0
  7 24  4  0
  8 15  4  0
  8 24  4  0
  9 14  4  0
  9 21  4  0
 10 12  4  0
 10 27  4  0
 11 12  4  0
 11 23  4  0
 13 23  4  0
 13 27  4  0
 14 20  4  0
 15 22  4  0
 16 18  4  0
 16 25  2  0
 16 28  4  0
 21 28  4  0
 24 27  1  0
M  END
$$$$

 Created by Python create_sdf_string function

 28 31  0  0  0  0  0  0  0  0999 V2000
   -1.0054  -13.0622   19.1198 C   0  0  0  0  0  0  0  0  0  0  0  0
    3.1478   -8.5360   28.5161 C   0  0  0  0  0  0  0  0  0  0  0  0
    0.5798   -7.1906   27.9330 C   0  0  0  0  0  0  0  0  0  0  0  0
    0.3978   -5.1561   26.6955 C   0  0  0  0  0  0  0  0  0  0  0  0
    2.3063  -10.0533   30.0125 C   0  0  0  0  0  0  0  0  0  0  0  0
    1.8591   -6.8254   27.4685 N   0  0  0  0  0  0  0  0  0  0  0  0
   -0.2167  -12.1055   18.5568 C   0  0  0  0  0  0  0  0  0  0  0  0
   -2.0661  -10.6994   18.1916 C   0  0  0  0  0  0  0  0  0  0  0  0
    5.2703   -7.5691   27.1123 C   0  0  0  0  0  0  0  0  0  0  0  0
    1.6204   -9.9887   17.2935 C   0  0  0  0  0  0  0  0  0  0  0  0
    1.8931   -7.9265   16.2047 C   0  0  0  0  0  0  0  0  0  0  0  0
    2.4396   -9.0801   16.7132 C   0  0  0  0  0  0  0  0  0  0  0  0
   -0.2575   -8.6234   16.8582 C   0  0  0  0  0  0  0  0  0  0  0  0
    4.0614   -7.0367   27.0106 N   0  0  0  0  0  0  0  0  0  0  0  0
   -2.9133  -11.6279   18.7578 C   0  0  0  0  0  0  0  0  0  0  0  0
    4.5688  -10.1291   29.5758 C   0  0  0  0  0  0  0  0  0  0  0  0
    2.1008   -9.0410   29.1852 N   0  0  0  0  0  0  0  0  0  0  0  0
    3.4829  -10.5697   30.2091 N   0  0  0  0  0  0  0  0  0  0  0  0
   -0.3363   -6.1172   27.5628 C   0  0  0  0  0  0  0  0  0  0  0  0
    3.0331   -7.4400   27.6362 C   0  0  0  0  0  0  0  0  0  0  0  0
    5.4553   -8.5933   27.9644 C   0  0  0  0  0  0  0  0  0  0  0  0
   -2.3870  -12.8440   19.2512 C   0  0  0  0  0  0  0  0  0  0  0  0
    0.5331   -7.6964   16.2751 C   0  0  0  0  0  0  0  0  0  0  0  0
   -0.6740  -10.8737   18.0482 C   0  0  0  0  0  0  0  0  0  0  0  0
    5.6751  -10.5870   29.7637 O   0  0  0  0  0  0  0  0  0  0  0  0
    1.7612   -5.6483   26.7172 C   0  0  0  0  0  0  0  0  0  0  0  0
    0.2221   -9.8326   17.4055 C   0  0  0  0  0  0  0  0  0  0  0  0
    4.3850   -9.0730   28.6745 C   0  0  0  0  0  0  0  0  0  0  0  0
  1  7  4  0
  1 22  4  0
  2 17  4  0
  2 20  4  0
  2 28  4  0
  3  6  1  0
  3 19  1  0
  4 19  1  0
  4 26  1  0
  5 17  4  0
  5 18  4  0
  6 20  1  0
  6 26  1  0
  7 24  4  0
  8 15  4  0
  8 24  4  0
  9 14  4  0
  9 21  4  0
 10 12  4  0
 10 27  4  0
 11 12  4  0
 11 23  4  0
 13 23  4  0
 13 27  4  0
 14 20  4  0
 15 22  4  0
 16 18  4  0
 16 25  2  0
 16 28  4  0
 21 28  4  0
 24 27  1  0
M  END
$$$$

 Created by Python create_sdf_string function

 28 31  0  0  0  0  0  0  0  0999 V2000
   -1.0054  -13.0622   19.1198 C   0  0  0  0  0  0  0  0  0  0  0  0
    3.1478   -8.5360   28.5161 C   0  0  0  0  0  0  0  0  0  0  0  0
    0.5798   -7.1906   27.9330 C   0  0  0  0  0  0  0  0  0  0  0  0
    0.3978   -5.1561   26.6955 C   0  0  0  0  0  0  0  0  0  0  0  0
    2.3063  -10.0533   30.0125 C   0  0  0  0  0  0  0  0  0  0  0  0
    1.8591   -6.8254   27.4685 N   0  0  0  0  0  0  0  0  0  0  0  0
   -0.2167  -12.1055   18.5568 C   0  0  0  0  0  0  0  0  0  0  0  0
   -2.0661  -10.6994   18.1916 C   0  0  0  0  0  0  0  0  0  0  0  0
    5.2703   -7.5691   27.1123 C   0  0  0  0  0  0  0  0  0  0  0  0
    1.6204   -9.9887   17.2935 C   0  0  0  0  0  0  0  0  0  0  0  0
    1.8931   -7.9265   16.2047 C   0  0  0  0  0  0  0  0  0  0  0  0
    2.4396   -9.0801   16.7132 C   0  0  0  0  0  0  0  0  0  0  0  0
   -0.2575   -8.6234   16.8582 C   0  0  0  0  0  0  0  0  0  0  0  0
    4.0614   -7.0367   27.0106 N   0  0  0  0  0  0  0  0  0  0  0  0
   -2.9133  -11.6279   18.7578 C   0  0  0  0  0  0  0  0  0  0  0  0
    4.5688  -10.1291   29.5758 C   0  0  0  0  0  0  0  0  0  0  0  0
    2.1008   -9.0410   29.1852 N   0  0  0  0  0  0  0  0  0  0  0  0
    3.4829  -10.5697   30.2091 N   0  0  0  0  0  0  0  0  0  0  0  0
   -0.3363   -6.1172   27.5628 C   0  0  0  0  0  0  0  0  0  0  0  0
    3.0331   -7.4400   27.6362 C   0  0  0  0  0  0  0  0  0  0  0  0
    5.4553   -8.5933   27.9644 C   0  0  0  0  0  0  0  0  0  0  0  0
   -2.3870  -12.8440   19.2512 C   0  0  0  0  0  0  0  0  0  0  0  0
    0.5331   -7.6964   16.2751 C   0  0  0  0  0  0  0  0  0  0  0  0
   -0.6740  -10.8737   18.0482 C   0  0  0  0  0  0  0  0  0  0  0  0
    5.6751  -10.5870   29.7637 O   0  0  0  0  0  0  0  0  0  0  0  0
    1.7612   -5.6483   26.7172 C   0  0  0  0  0  0  0  0  0  0  0  0
    0.2221   -9.8326   17.4055 C   0  0  0  0  0  0  0  0  0  0  0  0
    4.3850   -9.0730   28.6745 C   0  0  0  0  0  0  0  0  0  0  0  0
  1  7  4  0
  1 22  4  0
  2 17  4  0
  2 20  4  0
  2 28  4  0
  3  6  1  0
  3 19  1  0
  4 19  1  0
  4 26  1  0
  5 17  4  0
  5 18  4  0
  6 20  1  0
  6 26  1  0
  7 24  4  0
  8 15  4  0
  8 24  4  0
  9 14  4  0
  9 21  4  0
 10 12  4  0
 10 27  4  0
 11 12  4  0
 11 23  4  0
 13 23  4  0
 13 27  4  0
 14 20  4  0
 15 22  4  0
 16 18  4  0
 16 25  2  0
 16 28  4  0
 21 28  4  0
 24 27  1  0
M  END
$$$$

 Created by Python create_sdf_string function

 28 31  0  0  0  0  0  0  0  0999 V2000
   -1.0054  -13.0622   19.1198 C   0  0  0  0  0  0  0  0  0  0  0  0
    3.1478   -8.5360   28.5161 C   0  0  0  0  0  0  0  0  0  0  0  0
    0.5798   -7.1906   27.9330 C   0  0  0  0  0  0  0  0  0  0  0  0
    0.3978   -5.1561   26.6955 C   0  0  0  0  0  0  0  0  0  0  0  0
    2.3063  -10.0533   30.0125 C   0  0  0  0  0  0  0  0  0  0  0  0
    1.8591   -6.8254   27.4685 N   0  0  0  0  0  0  0  0  0  0  0  0
   -0.2167  -12.1055   18.5568 C   0  0  0  0  0  0  0  0  0  0  0  0
   -2.0661  -10.6994   18.1916 C   0  0  0  0  0  0  0  0  0  0  0  0
    5.2703   -7.5691   27.1123 C   0  0  0  0  0  0  0  0  0  0  0  0
    1.6204   -9.9887   17.2935 C   0  0  0  0  0  0  0  0  0  0  0  0
    1.8931   -7.9265   16.2047 C   0  0  0  0  0  0  0  0  0  0  0  0
    2.4396   -9.0801   16.7132 C   0  0  0  0  0  0  0  0  0  0  0  0
   -0.2575   -8.6234   16.8582 C   0  0  0  0  0  0  0  0  0  0  0  0
    4.0614   -7.0367   27.0106 N   0  0  0  0  0  0  0  0  0  0  0  0
   -2.9133  -11.6279   18.7578 C   0  0  0  0  0  0  0  0  0  0  0  0
    4.5688  -10.1291   29.5758 C   0  0  0  0  0  0  0  0  0  0  0  0
    2.1008   -9.0410   29.1852 N   0  0  0  0  0  0  0  0  0  0  0  0
    3.4829  -10.5697   30.2091 N   0  0  0  0  0  0  0  0  0  0  0  0
   -0.3363   -6.1172   27.5628 C   0  0  0  0  0  0  0  0  0  0  0  0
    3.0331   -7.4400   27.6362 C   0  0  0  0  0  0  0  0  0  0  0  0
    5.4553   -8.5933   27.9644 C   0  0  0  0  0  0  0  0  0  0  0  0
   -2.3870  -12.8440   19.2512 C   0  0  0  0  0  0  0  0  0  0  0  0
    0.5331   -7.6964   16.2751 C   0  0  0  0  0  0  0  0  0  0  0  0
   -0.6740  -10.8737   18.0482 C   0  0  0  0  0  0  0  0  0  0  0  0
    5.6751  -10.5870   29.7637 O   0  0  0  0  0  0  0  0  0  0  0  0
    1.7612   -5.6483   26.7172 C   0  0  0  0  0  0  0  0  0  0  0  0
    0.2221   -9.8326   17.4055 C   0  0  0  0  0  0  0  0  0  0  0  0
    4.3850   -9.0730   28.6745 C   0  0  0  0  0  0  0  0  0  0  0  0
  1  7  4  0
  1 22  4  0
  2 17  4  0
  2 20  4  0
  2 28  4  0
  3  6  1  0
  3 19  1  0
  4 19  1  0
  4 26  1  0
  5 17  4  0
  5 18  4  0
  6 20  1  0
  6 26  1  0
  7 24  4  0
  8 15  4  0
  8 24  4  0
  9 14  4  0
  9 21  4  0
 10 12  4  0
 10 27  4  0
 11 12  4  0
 11 23  4  0
 13 23  4  0
 13 27  4  0
 14 20  4  0
 15 22  4  0
 16 18  4  0
 16 25  2  0
 16 28  4  0
 21 28  4  0
 24 27  1  0
M  END
$$$$

 Created by Python create_sdf_string function

 28 31  0  0  0  0  0  0  0  0999 V2000
   -1.0054  -13.0622   19.1198 C   0  0  0  0  0  0  0  0  0  0  0  0
    3.1478   -8.5360   28.5161 C   0  0  0  0  0  0  0  0  0  0  0  0
    0.5798   -7.1906   27.9330 C   0  0  0  0  0  0  0  0  0  0  0  0
    0.3978   -5.1561   26.6955 C   0  0  0  0  0  0  0  0  0  0  0  0
    2.3063  -10.0533   30.0125 C   0  0  0  0  0  0  0  0  0  0  0  0
    1.8591   -6.8254   27.4685 N   0  0  0  0  0  0  0  0  0  0  0  0
   -0.2167  -12.1055   18.5568 C   0  0  0  0  0  0  0  0  0  0  0  0
   -2.0661  -10.6994   18.1916 C   0  0  0  0  0  0  0  0  0  0  0  0
    5.2703   -7.5691   27.1123 C   0  0  0  0  0  0  0  0  0  0  0  0
    1.6204   -9.9887   17.2935 C   0  0  0  0  0  0  0  0  0  0  0  0
    1.8931   -7.9265   16.2047 C   0  0  0  0  0  0  0  0  0  0  0  0
    2.4396   -9.0801   16.7132 C   0  0  0  0  0  0  0  0  0  0  0  0
   -0.2575   -8.6234   16.8582 C   0  0  0  0  0  0  0  0  0  0  0  0
    4.0614   -7.0367   27.0106 N   0  0  0  0  0  0  0  0  0  0  0  0
   -2.9133  -11.6279   18.7578 C   0  0  0  0  0  0  0  0  0  0  0  0
    4.5688  -10.1291   29.5758 C   0  0  0  0  0  0  0  0  0  0  0  0
    2.1008   -9.0410   29.1852 N   0  0  0  0  0  0  0  0  0  0  0  0
    3.4829  -10.5697   30.2091 N   0  0  0  0  0  0  0  0  0  0  0  0
   -0.3363   -6.1172   27.5628 C   0  0  0  0  0  0  0  0  0  0  0  0
    3.0331   -7.4400   27.6362 C   0  0  0  0  0  0  0  0  0  0  0  0
    5.4553   -8.5933   27.9644 C   0  0  0  0  0  0  0  0  0  0  0  0
   -2.3870  -12.8440   19.2512 C   0  0  0  0  0  0  0  0  0  0  0  0
    0.5331   -7.6964   16.2751 C   0  0  0  0  0  0  0  0  0  0  0  0
   -0.6740  -10.8737   18.0482 C   0  0  0  0  0  0  0  0  0  0  0  0
    5.6751  -10.5870   29.7637 O   0  0  0  0  0  0  0  0  0  0  0  0
    1.7612   -5.6483   26.7172 C   0  0  0  0  0  0  0  0  0  0  0  0
    0.2221   -9.8326   17.4055 C   0  0  0  0  0  0  0  0  0  0  0  0
    4.3850   -9.0730   28.6745 C   0  0  0  0  0  0  0  0  0  0  0  0
  1  7  4  0
  1 22  4  0
  2 17  4  0
  2 20  4  0
  2 28  4  0
  3  6  1  0
  3 19  1  0
  4 19  1  0
  4 26  1  0
  5 17  4  0
  5 18  4  0
  6 20  1  0
  6 26  1  0
  7 24  4  0
  8 15  4  0
  8 24  4  0
  9 14  4  0
  9 21  4  0
 10 12  4  0
 10 27  4  0
 11 12  4  0
 11 23  4  0
 13 23  4  0
 13 27  4  0
 14 20  4  0
 15 22  4  0
 16 18  4  0
 16 25  2  0
 16 28  4  0
 21 28  4  0
 24 27  1  0
M  END
$$$$

 Created by Python create_sdf_string function

 28 31  0  0  0  0  0  0  0  0999 V2000
   -1.0054  -13.0622   19.1198 C   0  0  0  0  0  0  0  0  0  0  0  0
    3.1478   -8.5360   28.5161 C   0  0  0  0  0  0  0  0  0  0  0  0
    0.5798   -7.1906   27.9330 C   0  0  0  0  0  0  0  0  0  0  0  0
    0.3978   -5.1561   26.6955 C   0  0  0  0  0  0  0  0  0  0  0  0
    2.3063  -10.0533   30.0125 C   0  0  0  0  0  0  0  0  0  0  0  0
    1.8591   -6.8254   27.4685 N   0  0  0  0  0  0  0  0  0  0  0  0
   -0.2167  -12.1055   18.5568 C   0  0  0  0  0  0  0  0  0  0  0  0
   -2.0661  -10.6994   18.1916 C   0  0  0  0  0  0  0  0  0  0  0  0
    5.2703   -7.5691   27.1123 C   0  0  0  0  0  0  0  0  0  0  0  0
    1.6204   -9.9887   17.2935 C   0  0  0  0  0  0  0  0  0  0  0  0
    1.8931   -7.9265   16.2047 C   0  0  0  0  0  0  0  0  0  0  0  0
    2.4396   -9.0801   16.7132 C   0  0  0  0  0  0  0  0  0  0  0  0
   -0.2575   -8.6234   16.8582 C   0  0  0  0  0  0  0  0  0  0  0  0
    4.0614   -7.0367   27.0106 N   0  0  0  0  0  0  0  0  0  0  0  0
   -2.9133  -11.6279   18.7578 C   0  0  0  0  0  0  0  0  0  0  0  0
    4.5688  -10.1291   29.5758 C   0  0  0  0  0  0  0  0  0  0  0  0
    2.1008   -9.0410   29.1852 N   0  0  0  0  0  0  0  0  0  0  0  0
    3.4829  -10.5697   30.2091 N   0  0  0  0  0  0  0  0  0  0  0  0
   -0.3363   -6.1172   27.5628 C   0  0  0  0  0  0  0  0  0  0  0  0
    3.0331   -7.4400   27.6362 C   0  0  0  0  0  0  0  0  0  0  0  0
    5.4553   -8.5933   27.9644 C   0  0  0  0  0  0  0  0  0  0  0  0
   -2.3870  -12.8440   19.2512 C   0  0  0  0  0  0  0  0  0  0  0  0
    0.5331   -7.6964   16.2751 C   0  0  0  0  0  0  0  0  0  0  0  0
   -0.6740  -10.8737   18.0482 C   0  0  0  0  0  0  0  0  0  0  0  0
    5.6751  -10.5870   29.7637 O   0  0  0  0  0  0  0  0  0  0  0  0
    1.7612   -5.6483   26.7172 C   0  0  0  0  0  0  0  0  0  0  0  0
    0.2221   -9.8326   17.4055 C   0  0  0  0  0  0  0  0  0  0  0  0
    4.3850   -9.0730   28.6745 C   0  0  0  0  0  0  0  0  0  0  0  0
  1  7  4  0
  1 22  4  0
  2 17  4  0
  2 20  4  0
  2 28  4  0
  3  6  1  0
  3 19  1  0
  4 19  1  0
  4 26  1  0
  5 17  4  0
  5 18  4  0
  6 20  1  0
  6 26  1  0
  7 24  4  0
  8 15  4  0
  8 24  4  0
  9 14  4  0
  9 21  4  0
 10 12  4  0
 10 27  4  0
 11 12  4  0
 11 23  4  0
 13 23  4  0
 13 27  4  0
 14 20  4  0
 15 22  4  0
 16 18  4  0
 16 25  2  0
 16 28  4  0
 21 28  4  0
 24 27  1  0
M  END
$$$$

 Created by Python create_sdf_string function

 28 31  0  0  0  0  0  0  0  0999 V2000
   -1.0054  -13.0622   19.1198 C   0  0  0  0  0  0  0  0  0  0  0  0
    3.1478   -8.5360   28.5161 C   0  0  0  0  0  0  0  0  0  0  0  0
    0.5798   -7.1906   27.9330 C   0  0  0  0  0  0  0  0  0  0  0  0
    0.3978   -5.1561   26.6955 C   0  0  0  0  0  0  0  0  0  0  0  0
    2.3063  -10.0533   30.0125 C   0  0  0  0  0  0  0  0  0  0  0  0
    1.8591   -6.8254   27.4685 N   0  0  0  0  0  0  0  0  0  0  0  0
   -0.2167  -12.1055   18.5568 C   0  0  0  0  0  0  0  0  0  0  0  0
   -2.0661  -10.6994   18.1916 C   0  0  0  0  0  0  0  0  0  0  0  0
    5.2703   -7.5691   27.1123 C   0  0  0  0  0  0  0  0  0  0  0  0
    1.6204   -9.9887   17.2935 C   0  0  0  0  0  0  0  0  0  0  0  0
    1.8931   -7.9265   16.2047 C   0  0  0  0  0  0  0  0  0  0  0  0
    2.4396   -9.0801   16.7132 C   0  0  0  0  0  0  0  0  0  0  0  0
   -0.2575   -8.6234   16.8582 C   0  0  0  0  0  0  0  0  0  0  0  0
    4.0614   -7.0367   27.0106 N   0  0  0  0  0  0  0  0  0  0  0  0
   -2.9133  -11.6279   18.7578 C   0  0  0  0  0  0  0  0  0  0  0  0
    4.5688  -10.1291   29.5758 C   0  0  0  0  0  0  0  0  0  0  0  0
    2.1008   -9.0410   29.1852 N   0  0  0  0  0  0  0  0  0  0  0  0
    3.4829  -10.5697   30.2091 N   0  0  0  0  0  0  0  0  0  0  0  0
   -0.3363   -6.1172   27.5628 C   0  0  0  0  0  0  0  0  0  0  0  0
    3.0331   -7.4400   27.6362 C   0  0  0  0  0  0  0  0  0  0  0  0
    5.4553   -8.5933   27.9644 C   0  0  0  0  0  0  0  0  0  0  0  0
   -2.3870  -12.8440   19.2512 C   0  0  0  0  0  0  0  0  0  0  0  0
    0.5331   -7.6964   16.2751 C   0  0  0  0  0  0  0  0  0  0  0  0
   -0.6740  -10.8737   18.0482 C   0  0  0  0  0  0  0  0  0  0  0  0
    5.6751  -10.5870   29.7637 O   0  0  0  0  0  0  0  0  0  0  0  0
    1.7612   -5.6483   26.7172 C   0  0  0  0  0  0  0  0  0  0  0  0
    0.2221   -9.8326   17.4055 C   0  0  0  0  0  0  0  0  0  0  0  0
    4.3850   -9.0730   28.6745 C   0  0  0  0  0  0  0  0  0  0  0  0
  1  7  4  0
  1 22  4  0
  2 17  4  0
  2 20  4  0
  2 28  4  0
  3  6  1  0
  3 19  1  0
  4 19  1  0
  4 26  1  0
  5 17  4  0
  5 18  4  0
  6 20  1  0
  6 26  1  0
  7 24  4  0
  8 15  4  0
  8 24  4  0
  9 14  4  0
  9 21  4  0
 10 12  4  0
 10 27  4  0
 11 12  4  0
 11 23  4  0
 13 23  4  0
 13 27  4  0
 14 20  4  0
 15 22  4  0
 16 18  4  0
 16 25  2  0
 16 28  4  0
 21 28  4  0
 24 27  1  0
M  END
$$$$

 Created by Python create_sdf_string function

 28 31  0  0  0  0  0  0  0  0999 V2000
   -1.0054  -13.0622   19.1198 C   0  0  0  0  0  0  0  0  0  0  0  0
    3.1478   -8.5360   28.5161 C   0  0  0  0  0  0  0  0  0  0  0  0
    0.5798   -7.1906   27.9330 C   0  0  0  0  0  0  0  0  0  0  0  0
    0.3978   -5.1561   26.6955 C   0  0  0  0  0  0  0  0  0  0  0  0
    2.3063  -10.0533   30.0125 C   0  0  0  0  0  0  0  0  0  0  0  0
    1.8591   -6.8254   27.4685 N   0  0  0  0  0  0  0  0  0  0  0  0
   -0.2167  -12.1055   18.5568 C   0  0  0  0  0  0  0  0  0  0  0  0
   -2.0661  -10.6994   18.1916 C   0  0  0  0  0  0  0  0  0  0  0  0
    5.2703   -7.5691   27.1123 C   0  0  0  0  0  0  0  0  0  0  0  0
    1.6204   -9.9887   17.2935 C   0  0  0  0  0  0  0  0  0  0  0  0
    1.8931   -7.9265   16.2047 C   0  0  0  0  0  0  0  0  0  0  0  0
    2.4396   -9.0801   16.7132 C   0  0  0  0  0  0  0  0  0  0  0  0
   -0.2575   -8.6234   16.8582 C   0  0  0  0  0  0  0  0  0  0  0  0
    4.0614   -7.0367   27.0106 N   0  0  0  0  0  0  0  0  0  0  0  0
   -2.9133  -11.6279   18.7578 C   0  0  0  0  0  0  0  0  0  0  0  0
    4.5688  -10.1291   29.5758 C   0  0  0  0  0  0  0  0  0  0  0  0
    2.1008   -9.0410   29.1852 N   0  0  0  0  0  0  0  0  0  0  0  0
    3.4829  -10.5697   30.2091 N   0  0  0  0  0  0  0  0  0  0  0  0
   -0.3363   -6.1172   27.5628 C   0  0  0  0  0  0  0  0  0  0  0  0
    3.0331   -7.4400   27.6362 C   0  0  0  0  0  0  0  0  0  0  0  0
    5.4553   -8.5933   27.9644 C   0  0  0  0  0  0  0  0  0  0  0  0
   -2.3870  -12.8440   19.2512 C   0  0  0  0  0  0  0  0  0  0  0  0
    0.5331   -7.6964   16.2751 C   0  0  0  0  0  0  0  0  0  0  0  0
   -0.6740  -10.8737   18.0482 C   0  0  0  0  0  0  0  0  0  0  0  0
    5.6751  -10.5870   29.7637 O   0  0  0  0  0  0  0  0  0  0  0  0
    1.7612   -5.6483   26.7172 C   0  0  0  0  0  0  0  0  0  0  0  0
    0.2221   -9.8326   17.4055 C   0  0  0  0  0  0  0  0  0  0  0  0
    4.3850   -9.0730   28.6745 C   0  0  0  0  0  0  0  0  0  0  0  0
  1  7  4  0
  1 22  4  0
  2 17  4  0
  2 20  4  0
  2 28  4  0
  3  6  1  0
  3 19  1  0
  4 19  1  0
  4 26  1  0
  5 17  4  0
  5 18  4  0
  6 20  1  0
  6 26  1  0
  7 24  4  0
  8 15  4  0
  8 24  4  0
  9 14  4  0
  9 21  4  0
 10 12  4  0
 10 27  4  0
 11 12  4  0
 11 23  4  0
 13 23  4  0
 13 27  4  0
 14 20  4  0
 15 22  4  0
 16 18  4  0
 16 25  2  0
 16 28  4  0
 21 28  4  0
 24 27  1  0
M  END
$$$$

 Created by Python create_sdf_string function

 28 31  0  0  0  0  0  0  0  0999 V2000
   -1.0054  -13.0622   19.1198 C   0  0  0  0  0  0  0  0  0  0  0  0
    3.1478   -8.5360   28.5161 C   0  0  0  0  0  0  0  0  0  0  0  0
    0.5798   -7.1906   27.9330 C   0  0  0  0  0  0  0  0  0  0  0  0
    0.3978   -5.1561   26.6955 C   0  0  0  0  0  0  0  0  0  0  0  0
    2.3063  -10.0533   30.0125 C   0  0  0  0  0  0  0  0  0  0  0  0
    1.8591   -6.8254   27.4685 N   0  0  0  0  0  0  0  0  0  0  0  0
   -0.2167  -12.1055   18.5568 C   0  0  0  0  0  0  0  0  0  0  0  0
   -2.0661  -10.6994   18.1916 C   0  0  0  0  0  0  0  0  0  0  0  0
    5.2703   -7.5691   27.1123 C   0  0  0  0  0  0  0  0  0  0  0  0
    1.6204   -9.9887   17.2935 C   0  0  0  0  0  0  0  0  0  0  0  0
    1.8931   -7.9265   16.2047 C   0  0  0  0  0  0  0  0  0  0  0  0
    2.4396   -9.0801   16.7132 C   0  0  0  0  0  0  0  0  0  0  0  0
   -0.2575   -8.6234   16.8582 C   0  0  0  0  0  0  0  0  0  0  0  0
    4.0614   -7.0367   27.0106 N   0  0  0  0  0  0  0  0  0  0  0  0
   -2.9133  -11.6279   18.7578 C   0  0  0  0  0  0  0  0  0  0  0  0
    4.5688  -10.1291   29.5758 C   0  0  0  0  0  0  0  0  0  0  0  0
    2.1008   -9.0410   29.1852 N   0  0  0  0  0  0  0  0  0  0  0  0
    3.4829  -10.5697   30.2091 N   0  0  0  0  0  0  0  0  0  0  0  0
   -0.3363   -6.1172   27.5628 C   0  0  0  0  0  0  0  0  0  0  0  0
    3.0331   -7.4400   27.6362 C   0  0  0  0  0  0  0  0  0  0  0  0
    5.4553   -8.5933   27.9644 C   0  0  0  0  0  0  0  0  0  0  0  0
   -2.3870  -12.8440   19.2512 C   0  0  0  0  0  0  0  0  0  0  0  0
    0.5331   -7.6964   16.2751 C   0  0  0  0  0  0  0  0  0  0  0  0
   -0.6740  -10.8737   18.0482 C   0  0  0  0  0  0  0  0  0  0  0  0
    5.6751  -10.5870   29.7637 O   0  0  0  0  0  0  0  0  0  0  0  0
    1.7612   -5.6483   26.7172 C   0  0  0  0  0  0  0  0  0  0  0  0
    0.2221   -9.8326   17.4055 C   0  0  0  0  0  0  0  0  0  0  0  0
    4.3850   -9.0730   28.6745 C   0  0  0  0  0  0  0  0  0  0  0  0
  1  7  4  0
  1 22  4  0
  2 17  4  0
  2 20  4  0
  2 28  4  0
  3  6  1  0
  3 19  1  0
  4 19  1  0
  4 26  1  0
  5 17  4  0
  5 18  4  0
  6 20  1  0
  6 26  1  0
  7 24  4  0
  8 15  4  0
  8 24  4  0
  9 14  4  0
  9 21  4  0
 10 12  4  0
 10 27  4  0
 11 12  4  0
 11 23  4  0
 13 23  4  0
 13 27  4  0
 14 20  4  0
 15 22  4  0
 16 18  4  0
 16 25  2  0
 16 28  4  0
 21 28  4  0
 24 27  1  0
M  END
$$$$

 Created by Python create_sdf_string function

 28 31  0  0  0  0  0  0  0  0999 V2000
   -1.0054  -13.0622   19.1198 C   0  0  0  0  0  0  0  0  0  0  0  0
    3.1478   -8.5360   28.5161 C   0  0  0  0  0  0  0  0  0  0  0  0
    0.5798   -7.1906   27.9330 C   0  0  0  0  0  0  0  0  0  0  0  0
    0.3978   -5.1561   26.6955 C   0  0  0  0  0  0  0  0  0  0  0  0
    2.3063  -10.0533   30.0125 C   0  0  0  0  0  0  0  0  0  0  0  0
    1.8591   -6.8254   27.4685 N   0  0  0  0  0  0  0  0  0  0  0  0
   -0.2167  -12.1055   18.5568 C   0  0  0  0  0  0  0  0  0  0  0  0
   -2.0661  -10.6994   18.1916 C   0  0  0  0  0  0  0  0  0  0  0  0
    5.2703   -7.5691   27.1123 C   0  0  0  0  0  0  0  0  0  0  0  0
    1.6204   -9.9887   17.2935 C   0  0  0  0  0  0  0  0  0  0  0  0
    1.8931   -7.9265   16.2047 C   0  0  0  0  0  0  0  0  0  0  0  0
    2.4396   -9.0801   16.7132 C   0  0  0  0  0  0  0  0  0  0  0  0
   -0.2575   -8.6234   16.8582 C   0  0  0  0  0  0  0  0  0  0  0  0
    4.0614   -7.0367   27.0106 N   0  0  0  0  0  0  0  0  0  0  0  0
   -2.9133  -11.6279   18.7578 C   0  0  0  0  0  0  0  0  0  0  0  0
    4.5688  -10.1291   29.5758 C   0  0  0  0  0  0  0  0  0  0  0  0
    2.1008   -9.0410   29.1852 N   0  0  0  0  0  0  0  0  0  0  0  0
    3.4829  -10.5697   30.2091 N   0  0  0  0  0  0  0  0  0  0  0  0
   -0.3363   -6.1172   27.5628 C   0  0  0  0  0  0  0  0  0  0  0  0
    3.0331   -7.4400   27.6362 C   0  0  0  0  0  0  0  0  0  0  0  0
    5.4553   -8.5933   27.9644 C   0  0  0  0  0  0  0  0  0  0  0  0
   -2.3870  -12.8440   19.2512 C   0  0  0  0  0  0  0  0  0  0  0  0
    0.5331   -7.6964   16.2751 C   0  0  0  0  0  0  0  0  0  0  0  0
   -0.6740  -10.8737   18.0482 C   0  0  0  0  0  0  0  0  0  0  0  0
    5.6751  -10.5870   29.7637 O   0  0  0  0  0  0  0  0  0  0  0  0
    1.7612   -5.6483   26.7172 C   0  0  0  0  0  0  0  0  0  0  0  0
    0.2221   -9.8326   17.4055 C   0  0  0  0  0  0  0  0  0  0  0  0
    4.3850   -9.0730   28.6745 C   0  0  0  0  0  0  0  0  0  0  0  0
  1  7  4  0
  1 22  4  0
  2 17  4  0
  2 20  4  0
  2 28  4  0
  3  6  1  0
  3 19  1  0
  4 19  1  0
  4 26  1  0
  5 17  4  0
  5 18  4  0
  6 20  1  0
  6 26  1  0
  7 24  4  0
  8 15  4  0
  8 24  4  0
  9 14  4  0
  9 21  4  0
 10 12  4  0
 10 27  4  0
 11 12  4  0
 11 23  4  0
 13 23  4  0
 13 27  4  0
 14 20  4  0
 15 22  4  0
 16 18  4  0
 16 25  2  0
 16 28  4  0
 21 28  4  0
 24 27  1  0
M  END
$$$$

 Created by Python create_sdf_string function

 28 31  0  0  0  0  0  0  0  0999 V2000
   -1.0054  -13.0622   19.1198 C   0  0  0  0  0  0  0  0  0  0  0  0
    3.1478   -8.5360   28.5161 C   0  0  0  0  0  0  0  0  0  0  0  0
    0.5798   -7.1906   27.9330 C   0  0  0  0  0  0  0  0  0  0  0  0
    0.3978   -5.1561   26.6955 C   0  0  0  0  0  0  0  0  0  0  0  0
    2.3063  -10.0533   30.0125 C   0  0  0  0  0  0  0  0  0  0  0  0
    1.8591   -6.8254   27.4685 N   0  0  0  0  0  0  0  0  0  0  0  0
   -0.2167  -12.1055   18.5568 C   0  0  0  0  0  0  0  0  0  0  0  0
   -2.0661  -10.6994   18.1916 C   0  0  0  0  0  0  0  0  0  0  0  0
    5.2703   -7.5691   27.1123 C   0  0  0  0  0  0  0  0  0  0  0  0
    1.6204   -9.9887   17.2935 C   0  0  0  0  0  0  0  0  0  0  0  0
    1.8931   -7.9265   16.2047 C   0  0  0  0  0  0  0  0  0  0  0  0
    2.4396   -9.0801   16.7132 C   0  0  0  0  0  0  0  0  0  0  0  0
   -0.2575   -8.6234   16.8582 C   0  0  0  0  0  0  0  0  0  0  0  0
    4.0614   -7.0367   27.0106 N   0  0  0  0  0  0  0  0  0  0  0  0
   -2.9133  -11.6279   18.7578 C   0  0  0  0  0  0  0  0  0  0  0  0
    4.5688  -10.1291   29.5758 C   0  0  0  0  0  0  0  0  0  0  0  0
    2.1008   -9.0410   29.1852 N   0  0  0  0  0  0  0  0  0  0  0  0
    3.4829  -10.5697   30.2091 N   0  0  0  0  0  0  0  0  0  0  0  0
   -0.3363   -6.1172   27.5628 C   0  0  0  0  0  0  0  0  0  0  0  0
    3.0331   -7.4400   27.6362 C   0  0  0  0  0  0  0  0  0  0  0  0
    5.4553   -8.5933   27.9644 C   0  0  0  0  0  0  0  0  0  0  0  0
   -2.3870  -12.8440   19.2512 C   0  0  0  0  0  0  0  0  0  0  0  0
    0.5331   -7.6964   16.2751 C   0  0  0  0  0  0  0  0  0  0  0  0
   -0.6740  -10.8737   18.0482 C   0  0  0  0  0  0  0  0  0  0  0  0
    5.6751  -10.5870   29.7637 O   0  0  0  0  0  0  0  0  0  0  0  0
    1.7612   -5.6483   26.7172 C   0  0  0  0  0  0  0  0  0  0  0  0
    0.2221   -9.8326   17.4055 C   0  0  0  0  0  0  0  0  0  0  0  0
    4.3850   -9.0730   28.6745 C   0  0  0  0  0  0  0  0  0  0  0  0
  1  7  4  0
  1 22  4  0
  2 17  4  0
  2 20  4  0
  2 28  4  0
  3  6  1  0
  3 19  1  0
  4 19  1  0
  4 26  1  0
  5 17  4  0
  5 18  4  0
  6 20  1  0
  6 26  1  0
  7 24  4  0
  8 15  4  0
  8 24  4  0
  9 14  4  0
  9 21  4  0
 10 12  4  0
 10 27  4  0
 11 12  4  0
 11 23  4  0
 13 23  4  0
 13 27  4  0
 14 20  4  0
 15 22  4  0
 16 18  4  0
 16 25  2  0
 16 28  4  0
 21 28  4  0
 24 27  1  0
M  END
$$$$

 Created by Python create_sdf_string function

 28 31  0  0  0  0  0  0  0  0999 V2000
   -1.0054  -13.0622   19.1198 C   0  0  0  0  0  0  0  0  0  0  0  0
    3.1478   -8.5360   28.5161 C   0  0  0  0  0  0  0  0  0  0  0  0
    0.5798   -7.1906   27.9330 C   0  0  0  0  0  0  0  0  0  0  0  0
    0.3978   -5.1561   26.6955 C   0  0  0  0  0  0  0  0  0  0  0  0
    2.3063  -10.0533   30.0125 C   0  0  0  0  0  0  0  0  0  0  0  0
    1.8591   -6.8254   27.4685 N   0  0  0  0  0  0  0  0  0  0  0  0
   -0.2167  -12.1055   18.5568 C   0  0  0  0  0  0  0  0  0  0  0  0
   -2.0661  -10.6994   18.1916 C   0  0  0  0  0  0  0  0  0  0  0  0
    5.2703   -7.5691   27.1123 C   0  0  0  0  0  0  0  0  0  0  0  0
    1.6204   -9.9887   17.2935 C   0  0  0  0  0  0  0  0  0  0  0  0
    1.8931   -7.9265   16.2047 C   0  0  0  0  0  0  0  0  0  0  0  0
    2.4396   -9.0801   16.7132 C   0  0  0  0  0  0  0  0  0  0  0  0
   -0.2575   -8.6234   16.8582 C   0  0  0  0  0  0  0  0  0  0  0  0
    4.0614   -7.0367   27.0106 N   0  0  0  0  0  0  0  0  0  0  0  0
   -2.9133  -11.6279   18.7578 C   0  0  0  0  0  0  0  0  0  0  0  0
    4.5688  -10.1291   29.5758 C   0  0  0  0  0  0  0  0  0  0  0  0
    2.1008   -9.0410   29.1852 N   0  0  0  0  0  0  0  0  0  0  0  0
    3.4829  -10.5697   30.2091 N   0  0  0  0  0  0  0  0  0  0  0  0
   -0.3363   -6.1172   27.5628 C   0  0  0  0  0  0  0  0  0  0  0  0
    3.0331   -7.4400   27.6362 C   0  0  0  0  0  0  0  0  0  0  0  0
    5.4553   -8.5933   27.9644 C   0  0  0  0  0  0  0  0  0  0  0  0
   -2.3870  -12.8440   19.2512 C   0  0  0  0  0  0  0  0  0  0  0  0
    0.5331   -7.6964   16.2751 C   0  0  0  0  0  0  0  0  0  0  0  0
   -0.6740  -10.8737   18.0482 C   0  0  0  0  0  0  0  0  0  0  0  0
    5.6751  -10.5870   29.7637 O   0  0  0  0  0  0  0  0  0  0  0  0
    1.7612   -5.6483   26.7172 C   0  0  0  0  0  0  0  0  0  0  0  0
    0.2221   -9.8326   17.4055 C   0  0  0  0  0  0  0  0  0  0  0  0
    4.3850   -9.0730   28.6745 C   0  0  0  0  0  0  0  0  0  0  0  0
  1  7  4  0
  1 22  4  0
  2 17  4  0
  2 20  4  0
  2 28  4  0
  3  6  1  0
  3 19  1  0
  4 19  1  0
  4 26  1  0
  5 17  4  0
  5 18  4  0
  6 20  1  0
  6 26  1  0
  7 24  4  0
  8 15  4  0
  8 24  4  0
  9 14  4  0
  9 21  4  0
 10 12  4  0
 10 27  4  0
 11 12  4  0
 11 23  4  0
 13 23  4  0
 13 27  4  0
 14 20  4  0
 15 22  4  0
 16 18  4  0
 16 25  2  0
 16 28  4  0
 21 28  4  0
 24 27  1  0
M  END
$$$$

 Created by Python create_sdf_string function

 28 31  0  0  0  0  0  0  0  0999 V2000
   -1.0054  -13.0622   19.1198 C   0  0  0  0  0  0  0  0  0  0  0  0
    3.1478   -8.5360   28.5161 C   0  0  0  0  0  0  0  0  0  0  0  0
    0.5798   -7.1906   27.9330 C   0  0  0  0  0  0  0  0  0  0  0  0
    0.3978   -5.1561   26.6955 C   0  0  0  0  0  0  0  0  0  0  0  0
    2.3063  -10.0533   30.0125 C   0  0  0  0  0  0  0  0  0  0  0  0
    1.8591   -6.8254   27.4685 N   0  0  0  0  0  0  0  0  0  0  0  0
   -0.2167  -12.1055   18.5568 C   0  0  0  0  0  0  0  0  0  0  0  0
   -2.0661  -10.6994   18.1916 C   0  0  0  0  0  0  0  0  0  0  0  0
    5.2703   -7.5691   27.1123 C   0  0  0  0  0  0  0  0  0  0  0  0
    1.6204   -9.9887   17.2935 C   0  0  0  0  0  0  0  0  0  0  0  0
    1.8931   -7.9265   16.2047 C   0  0  0  0  0  0  0  0  0  0  0  0
    2.4396   -9.0801   16.7132 C   0  0  0  0  0  0  0  0  0  0  0  0
   -0.2575   -8.6234   16.8582 C   0  0  0  0  0  0  0  0  0  0  0  0
    4.0614   -7.0367   27.0106 N   0  0  0  0  0  0  0  0  0  0  0  0
   -2.9133  -11.6279   18.7578 C   0  0  0  0  0  0  0  0  0  0  0  0
    4.5688  -10.1291   29.5758 C   0  0  0  0  0  0  0  0  0  0  0  0
    2.1008   -9.0410   29.1852 N   0  0  0  0  0  0  0  0  0  0  0  0
    3.4829  -10.5697   30.2091 N   0  0  0  0  0  0  0  0  0  0  0  0
   -0.3363   -6.1172   27.5628 C   0  0  0  0  0  0  0  0  0  0  0  0
    3.0331   -7.4400   27.6362 C   0  0  0  0  0  0  0  0  0  0  0  0
    5.4553   -8.5933   27.9644 C   0  0  0  0  0  0  0  0  0  0  0  0
   -2.3870  -12.8440   19.2512 C   0  0  0  0  0  0  0  0  0  0  0  0
    0.5331   -7.6964   16.2751 C   0  0  0  0  0  0  0  0  0  0  0  0
   -0.6740  -10.8737   18.0482 C   0  0  0  0  0  0  0  0  0  0  0  0
    5.6751  -10.5870   29.7637 O   0  0  0  0  0  0  0  0  0  0  0  0
    1.7612   -5.6483   26.7172 C   0  0  0  0  0  0  0  0  0  0  0  0
    0.2221   -9.8326   17.4055 C   0  0  0  0  0  0  0  0  0  0  0  0
    4.3850   -9.0730   28.6745 C   0  0  0  0  0  0  0  0  0  0  0  0
  1  7  4  0
  1 22  4  0
  2 17  4  0
  2 20  4  0
  2 28  4  0
  3  6  1  0
  3 19  1  0
  4 19  1  0
  4 26  1  0
  5 17  4  0
  5 18  4  0
  6 20  1  0
  6 26  1  0
  7 24  4  0
  8 15  4  0
  8 24  4  0
  9 14  4  0
  9 21  4  0
 10 12  4  0
 10 27  4  0
 11 12  4  0
 11 23  4  0
 13 23  4  0
 13 27  4  0
 14 20  4  0
 15 22  4  0
 16 18  4  0
 16 25  2  0
 16 28  4  0
 21 28  4  0
 24 27  1  0
M  END
$$$$

 Created by Python create_sdf_string function

 28 31  0  0  0  0  0  0  0  0999 V2000
   -1.0054  -13.0622   19.1198 C   0  0  0  0  0  0  0  0  0  0  0  0
    3.1478   -8.5360   28.5161 C   0  0  0  0  0  0  0  0  0  0  0  0
    0.5798   -7.1906   27.9330 C   0  0  0  0  0  0  0  0  0  0  0  0
    0.3978   -5.1561   26.6955 C   0  0  0  0  0  0  0  0  0  0  0  0
    2.3063  -10.0533   30.0125 C   0  0  0  0  0  0  0  0  0  0  0  0
    1.8591   -6.8254   27.4685 N   0  0  0  0  0  0  0  0  0  0  0  0
   -0.2167  -12.1055   18.5568 C   0  0  0  0  0  0  0  0  0  0  0  0
   -2.0661  -10.6994   18.1916 C   0  0  0  0  0  0  0  0  0  0  0  0
    5.2703   -7.5691   27.1123 C   0  0  0  0  0  0  0  0  0  0  0  0
    1.6204   -9.9887   17.2935 C   0  0  0  0  0  0  0  0  0  0  0  0
    1.8931   -7.9265   16.2047 C   0  0  0  0  0  0  0  0  0  0  0  0
    2.4396   -9.0801   16.7132 C   0  0  0  0  0  0  0  0  0  0  0  0
   -0.2575   -8.6234   16.8582 C   0  0  0  0  0  0  0  0  0  0  0  0
    4.0614   -7.0367   27.0106 N   0  0  0  0  0  0  0  0  0  0  0  0
   -2.9133  -11.6279   18.7578 C   0  0  0  0  0  0  0  0  0  0  0  0
    4.5688  -10.1291   29.5758 C   0  0  0  0  0  0  0  0  0  0  0  0
    2.1008   -9.0410   29.1852 N   0  0  0  0  0  0  0  0  0  0  0  0
    3.4829  -10.5697   30.2091 N   0  0  0  0  0  0  0  0  0  0  0  0
   -0.3363   -6.1172   27.5628 C   0  0  0  0  0  0  0  0  0  0  0  0
    3.0331   -7.4400   27.6362 C   0  0  0  0  0  0  0  0  0  0  0  0
    5.4553   -8.5933   27.9644 C   0  0  0  0  0  0  0  0  0  0  0  0
   -2.3870  -12.8440   19.2512 C   0  0  0  0  0  0  0  0  0  0  0  0
    0.5331   -7.6964   16.2751 C   0  0  0  0  0  0  0  0  0  0  0  0
   -0.6740  -10.8737   18.0482 C   0  0  0  0  0  0  0  0  0  0  0  0
    5.6751  -10.5870   29.7637 O   0  0  0  0  0  0  0  0  0  0  0  0
    1.7612   -5.6483   26.7172 C   0  0  0  0  0  0  0  0  0  0  0  0
    0.2221   -9.8326   17.4055 C   0  0  0  0  0  0  0  0  0  0  0  0
    4.3850   -9.0730   28.6745 C   0  0  0  0  0  0  0  0  0  0  0  0
  1  7  4  0
  1 22  4  0
  2 17  4  0
  2 20  4  0
  2 28  4  0
  3  6  1  0
  3 19  1  0
  4 19  1  0
  4 26  1  0
  5 17  4  0
  5 18  4  0
  6 20  1  0
  6 26  1  0
  7 24  4  0
  8 15  4  0
  8 24  4  0
  9 14  4  0
  9 21  4  0
 10 12  4  0
 10 27  4  0
 11 12  4  0
 11 23  4  0
 13 23  4  0
 13 27  4  0
 14 20  4  0
 15 22  4  0
 16 18  4  0
 16 25  2  0
 16 28  4  0
 21 28  4  0
 24 27  1  0
M  END
$$$$

 Created by Python create_sdf_string function

 28 31  0  0  0  0  0  0  0  0999 V2000
   -1.0054  -13.0622   19.1198 C   0  0  0  0  0  0  0  0  0  0  0  0
    3.1478   -8.5360   28.5161 C   0  0  0  0  0  0  0  0  0  0  0  0
    0.5798   -7.1906   27.9330 C   0  0  0  0  0  0  0  0  0  0  0  0
    0.3978   -5.1561   26.6955 C   0  0  0  0  0  0  0  0  0  0  0  0
    2.3063  -10.0533   30.0125 C   0  0  0  0  0  0  0  0  0  0  0  0
    1.8591   -6.8254   27.4685 N   0  0  0  0  0  0  0  0  0  0  0  0
   -0.2167  -12.1055   18.5568 C   0  0  0  0  0  0  0  0  0  0  0  0
   -2.0661  -10.6994   18.1916 C   0  0  0  0  0  0  0  0  0  0  0  0
    5.2703   -7.5691   27.1123 C   0  0  0  0  0  0  0  0  0  0  0  0
    1.6204   -9.9887   17.2935 C   0  0  0  0  0  0  0  0  0  0  0  0
    1.8931   -7.9265   16.2047 C   0  0  0  0  0  0  0  0  0  0  0  0
    2.4396   -9.0801   16.7132 C   0  0  0  0  0  0  0  0  0  0  0  0
   -0.2575   -8.6234   16.8582 C   0  0  0  0  0  0  0  0  0  0  0  0
    4.0614   -7.0367   27.0106 N   0  0  0  0  0  0  0  0  0  0  0  0
   -2.9133  -11.6279   18.7578 C   0  0  0  0  0  0  0  0  0  0  0  0
    4.5688  -10.1291   29.5758 C   0  0  0  0  0  0  0  0  0  0  0  0
    2.1008   -9.0410   29.1852 N   0  0  0  0  0  0  0  0  0  0  0  0
    3.4829  -10.5697   30.2091 N   0  0  0  0  0  0  0  0  0  0  0  0
   -0.3363   -6.1172   27.5628 C   0  0  0  0  0  0  0  0  0  0  0  0
    3.0331   -7.4400   27.6362 C   0  0  0  0  0  0  0  0  0  0  0  0
    5.4553   -8.5933   27.9644 C   0  0  0  0  0  0  0  0  0  0  0  0
   -2.3870  -12.8440   19.2512 C   0  0  0  0  0  0  0  0  0  0  0  0
    0.5331   -7.6964   16.2751 C   0  0  0  0  0  0  0  0  0  0  0  0
   -0.6740  -10.8737   18.0482 C   0  0  0  0  0  0  0  0  0  0  0  0
    5.6751  -10.5870   29.7637 O   0  0  0  0  0  0  0  0  0  0  0  0
    1.7612   -5.6483   26.7172 C   0  0  0  0  0  0  0  0  0  0  0  0
    0.2221   -9.8326   17.4055 C   0  0  0  0  0  0  0  0  0  0  0  0
    4.3850   -9.0730   28.6745 C   0  0  0  0  0  0  0  0  0  0  0  0
  1  7  4  0
  1 22  4  0
  2 17  4  0
  2 20  4  0
  2 28  4  0
  3  6  1  0
  3 19  1  0
  4 19  1  0
  4 26  1  0
  5 17  4  0
  5 18  4  0
  6 20  1  0
  6 26  1  0
  7 24  4  0
  8 15  4  0
  8 24  4  0
  9 14  4  0
  9 21  4  0
 10 12  4  0
 10 27  4  0
 11 12  4  0
 11 23  4  0
 13 23  4  0
 13 27  4  0
 14 20  4  0
 15 22  4  0
 16 18  4  0
 16 25  2  0
 16 28  4  0
 21 28  4  0
 24 27  1  0
M  END
$$$$

 Created by Python create_sdf_string function

 28 31  0  0  0  0  0  0  0  0999 V2000
   -1.0054  -13.0622   19.1198 C   0  0  0  0  0  0  0  0  0  0  0  0
    3.1478   -8.5360   28.5161 C   0  0  0  0  0  0  0  0  0  0  0  0
    0.5798   -7.1906   27.9330 C   0  0  0  0  0  0  0  0  0  0  0  0
    0.3978   -5.1561   26.6955 C   0  0  0  0  0  0  0  0  0  0  0  0
    2.3063  -10.0533   30.0125 C   0  0  0  0  0  0  0  0  0  0  0  0
    1.8591   -6.8254   27.4685 N   0  0  0  0  0  0  0  0  0  0  0  0
   -0.2167  -12.1055   18.5568 C   0  0  0  0  0  0  0  0  0  0  0  0
   -2.0661  -10.6994   18.1916 C   0  0  0  0  0  0  0  0  0  0  0  0
    5.2703   -7.5691   27.1123 C   0  0  0  0  0  0  0  0  0  0  0  0
    1.6204   -9.9887   17.2935 C   0  0  0  0  0  0  0  0  0  0  0  0
    1.8931   -7.9265   16.2047 C   0  0  0  0  0  0  0  0  0  0  0  0
    2.4396   -9.0801   16.7132 C   0  0  0  0  0  0  0  0  0  0  0  0
   -0.2575   -8.6234   16.8582 C   0  0  0  0  0  0  0  0  0  0  0  0
    4.0614   -7.0367   27.0106 N   0  0  0  0  0  0  0  0  0  0  0  0
   -2.9133  -11.6279   18.7578 C   0  0  0  0  0  0  0  0  0  0  0  0
    4.5688  -10.1291   29.5758 C   0  0  0  0  0  0  0  0  0  0  0  0
    2.1008   -9.0410   29.1852 N   0  0  0  0  0  0  0  0  0  0  0  0
    3.4829  -10.5697   30.2091 N   0  0  0  0  0  0  0  0  0  0  0  0
   -0.3363   -6.1172   27.5628 C   0  0  0  0  0  0  0  0  0  0  0  0
    3.0331   -7.4400   27.6362 C   0  0  0  0  0  0  0  0  0  0  0  0
    5.4553   -8.5933   27.9644 C   0  0  0  0  0  0  0  0  0  0  0  0
   -2.3870  -12.8440   19.2512 C   0  0  0  0  0  0  0  0  0  0  0  0
    0.5331   -7.6964   16.2751 C   0  0  0  0  0  0  0  0  0  0  0  0
   -0.6740  -10.8737   18.0482 C   0  0  0  0  0  0  0  0  0  0  0  0
    5.6751  -10.5870   29.7637 O   0  0  0  0  0  0  0  0  0  0  0  0
    1.7612   -5.6483   26.7172 C   0  0  0  0  0  0  0  0  0  0  0  0
    0.2221   -9.8326   17.4055 C   0  0  0  0  0  0  0  0  0  0  0  0
    4.3850   -9.0730   28.6745 C   0  0  0  0  0  0  0  0  0  0  0  0
  1  7  4  0
  1 22  4  0
  2 17  4  0
  2 20  4  0
  2 28  4  0
  3  6  1  0
  3 19  1  0
  4 19  1  0
  4 26  1  0
  5 17  4  0
  5 18  4  0
  6 20  1  0
  6 26  1  0
  7 24  4  0
  8 15  4  0
  8 24  4  0
  9 14  4  0
  9 21  4  0
 10 12  4  0
 10 27  4  0
 11 12  4  0
 11 23  4  0
 13 23  4  0
 13 27  4  0
 14 20  4  0
 15 22  4  0
 16 18  4  0
 16 25  2  0
 16 28  4  0
 21 28  4  0
 24 27  1  0
M  END
$$$$

 Created by Python create_sdf_string function

 28 31  0  0  0  0  0  0  0  0999 V2000
   -1.0054  -13.0622   19.1198 C   0  0  0  0  0  0  0  0  0  0  0  0
    3.1478   -8.5360   28.5161 C   0  0  0  0  0  0  0  0  0  0  0  0
    0.5798   -7.1906   27.9330 C   0  0  0  0  0  0  0  0  0  0  0  0
    0.3978   -5.1561   26.6955 C   0  0  0  0  0  0  0  0  0  0  0  0
    2.3063  -10.0533   30.0125 C   0  0  0  0  0  0  0  0  0  0  0  0
    1.8591   -6.8254   27.4685 N   0  0  0  0  0  0  0  0  0  0  0  0
   -0.2167  -12.1055   18.5568 C   0  0  0  0  0  0  0  0  0  0  0  0
   -2.0661  -10.6994   18.1916 C   0  0  0  0  0  0  0  0  0  0  0  0
    5.2703   -7.5691   27.1123 C   0  0  0  0  0  0  0  0  0  0  0  0
    1.6204   -9.9887   17.2935 C   0  0  0  0  0  0  0  0  0  0  0  0
    1.8931   -7.9265   16.2047 C   0  0  0  0  0  0  0  0  0  0  0  0
    2.4396   -9.0801   16.7132 C   0  0  0  0  0  0  0  0  0  0  0  0
   -0.2575   -8.6234   16.8582 C   0  0  0  0  0  0  0  0  0  0  0  0
    4.0614   -7.0367   27.0106 N   0  0  0  0  0  0  0  0  0  0  0  0
   -2.9133  -11.6279   18.7578 C   0  0  0  0  0  0  0  0  0  0  0  0
    4.5688  -10.1291   29.5758 C   0  0  0  0  0  0  0  0  0  0  0  0
    2.1008   -9.0410   29.1852 N   0  0  0  0  0  0  0  0  0  0  0  0
    3.4829  -10.5697   30.2091 N   0  0  0  0  0  0  0  0  0  0  0  0
   -0.3363   -6.1172   27.5628 C   0  0  0  0  0  0  0  0  0  0  0  0
    3.0331   -7.4400   27.6362 C   0  0  0  0  0  0  0  0  0  0  0  0
    5.4553   -8.5933   27.9644 C   0  0  0  0  0  0  0  0  0  0  0  0
   -2.3870  -12.8440   19.2512 C   0  0  0  0  0  0  0  0  0  0  0  0
    0.5331   -7.6964   16.2751 C   0  0  0  0  0  0  0  0  0  0  0  0
   -0.6740  -10.8737   18.0482 C   0  0  0  0  0  0  0  0  0  0  0  0
    5.6751  -10.5870   29.7637 O   0  0  0  0  0  0  0  0  0  0  0  0
    1.7612   -5.6483   26.7172 C   0  0  0  0  0  0  0  0  0  0  0  0
    0.2221   -9.8326   17.4055 C   0  0  0  0  0  0  0  0  0  0  0  0
    4.3850   -9.0730   28.6745 C   0  0  0  0  0  0  0  0  0  0  0  0
  1  7  4  0
  1 22  4  0
  2 17  4  0
  2 20  4  0
  2 28  4  0
  3  6  1  0
  3 19  1  0
  4 19  1  0
  4 26  1  0
  5 17  4  0
  5 18  4  0
  6 20  1  0
  6 26  1  0
  7 24  4  0
  8 15  4  0
  8 24  4  0
  9 14  4  0
  9 21  4  0
 10 12  4  0
 10 27  4  0
 11 12  4  0
 11 23  4  0
 13 23  4  0
 13 27  4  0
 14 20  4  0
 15 22  4  0
 16 18  4  0
 16 25  2  0
 16 28  4  0
 21 28  4  0
 24 27  1  0
M  END
$$$$

 Created by Python create_sdf_string function

 28 31  0  0  0  0  0  0  0  0999 V2000
   -1.0054  -13.0622   19.1198 C   0  0  0  0  0  0  0  0  0  0  0  0
    3.1478   -8.5360   28.5161 C   0  0  0  0  0  0  0  0  0  0  0  0
    0.5798   -7.1906   27.9330 C   0  0  0  0  0  0  0  0  0  0  0  0
    0.3978   -5.1561   26.6955 C   0  0  0  0  0  0  0  0  0  0  0  0
    2.3063  -10.0533   30.0125 C   0  0  0  0  0  0  0  0  0  0  0  0
    1.8591   -6.8254   27.4685 N   0  0  0  0  0  0  0  0  0  0  0  0
   -0.2167  -12.1055   18.5568 C   0  0  0  0  0  0  0  0  0  0  0  0
   -2.0661  -10.6994   18.1916 C   0  0  0  0  0  0  0  0  0  0  0  0
    5.2703   -7.5691   27.1123 C   0  0  0  0  0  0  0  0  0  0  0  0
    1.6204   -9.9887   17.2935 C   0  0  0  0  0  0  0  0  0  0  0  0
    1.8931   -7.9265   16.2047 C   0  0  0  0  0  0  0  0  0  0  0  0
    2.4396   -9.0801   16.7132 C   0  0  0  0  0  0  0  0  0  0  0  0
   -0.2575   -8.6234   16.8582 C   0  0  0  0  0  0  0  0  0  0  0  0
    4.0614   -7.0367   27.0106 N   0  0  0  0  0  0  0  0  0  0  0  0
   -2.9133  -11.6279   18.7578 C   0  0  0  0  0  0  0  0  0  0  0  0
    4.5688  -10.1291   29.5758 C   0  0  0  0  0  0  0  0  0  0  0  0
    2.1008   -9.0410   29.1852 N   0  0  0  0  0  0  0  0  0  0  0  0
    3.4829  -10.5697   30.2091 N   0  0  0  0  0  0  0  0  0  0  0  0
   -0.3363   -6.1172   27.5628 C   0  0  0  0  0  0  0  0  0  0  0  0
    3.0331   -7.4400   27.6362 C   0  0  0  0  0  0  0  0  0  0  0  0
    5.4553   -8.5933   27.9644 C   0  0  0  0  0  0  0  0  0  0  0  0
   -2.3870  -12.8440   19.2512 C   0  0  0  0  0  0  0  0  0  0  0  0
    0.5331   -7.6964   16.2751 C   0  0  0  0  0  0  0  0  0  0  0  0
   -0.6740  -10.8737   18.0482 C   0  0  0  0  0  0  0  0  0  0  0  0
    5.6751  -10.5870   29.7637 O   0  0  0  0  0  0  0  0  0  0  0  0
    1.7612   -5.6483   26.7172 C   0  0  0  0  0  0  0  0  0  0  0  0
    0.2221   -9.8326   17.4055 C   0  0  0  0  0  0  0  0  0  0  0  0
    4.3850   -9.0730   28.6745 C   0  0  0  0  0  0  0  0  0  0  0  0
  1  7  4  0
  1 22  4  0
  2 17  4  0
  2 20  4  0
  2 28  4  0
  3  6  1  0
  3 19  1  0
  4 19  1  0
  4 26  1  0
  5 17  4  0
  5 18  4  0
  6 20  1  0
  6 26  1  0
  7 24  4  0
  8 15  4  0
  8 24  4  0
  9 14  4  0
  9 21  4  0
 10 12  4  0
 10 27  4  0
 11 12  4  0
 11 23  4  0
 13 23  4  0
 13 27  4  0
 14 20  4  0
 15 22  4  0
 16 18  4  0
 16 25  2  0
 16 28  4  0
 21 28  4  0
 24 27  1  0
M  END
$$$$

 Created by Python create_sdf_string function

 28 31  0  0  0  0  0  0  0  0999 V2000
   -1.0054  -13.0622   19.1198 C   0  0  0  0  0  0  0  0  0  0  0  0
    3.1478   -8.5360   28.5161 C   0  0  0  0  0  0  0  0  0  0  0  0
    0.5798   -7.1906   27.9330 C   0  0  0  0  0  0  0  0  0  0  0  0
    0.3978   -5.1561   26.6955 C   0  0  0  0  0  0  0  0  0  0  0  0
    2.3063  -10.0533   30.0125 C   0  0  0  0  0  0  0  0  0  0  0  0
    1.8591   -6.8254   27.4685 N   0  0  0  0  0  0  0  0  0  0  0  0
   -0.2167  -12.1055   18.5568 C   0  0  0  0  0  0  0  0  0  0  0  0
   -2.0661  -10.6994   18.1916 C   0  0  0  0  0  0  0  0  0  0  0  0
    5.2703   -7.5691   27.1123 C   0  0  0  0  0  0  0  0  0  0  0  0
    1.6204   -9.9887   17.2935 C   0  0  0  0  0  0  0  0  0  0  0  0
    1.8931   -7.9265   16.2047 C   0  0  0  0  0  0  0  0  0  0  0  0
    2.4396   -9.0801   16.7132 C   0  0  0  0  0  0  0  0  0  0  0  0
   -0.2575   -8.6234   16.8582 C   0  0  0  0  0  0  0  0  0  0  0  0
    4.0614   -7.0367   27.0106 N   0  0  0  0  0  0  0  0  0  0  0  0
   -2.9133  -11.6279   18.7578 C   0  0  0  0  0  0  0  0  0  0  0  0
    4.5688  -10.1291   29.5758 C   0  0  0  0  0  0  0  0  0  0  0  0
    2.1008   -9.0410   29.1852 N   0  0  0  0  0  0  0  0  0  0  0  0
    3.4829  -10.5697   30.2091 N   0  0  0  0  0  0  0  0  0  0  0  0
   -0.3363   -6.1172   27.5628 C   0  0  0  0  0  0  0  0  0  0  0  0
    3.0331   -7.4400   27.6362 C   0  0  0  0  0  0  0  0  0  0  0  0
    5.4553   -8.5933   27.9644 C   0  0  0  0  0  0  0  0  0  0  0  0
   -2.3870  -12.8440   19.2512 C   0  0  0  0  0  0  0  0  0  0  0  0
    0.5331   -7.6964   16.2751 C   0  0  0  0  0  0  0  0  0  0  0  0
   -0.6740  -10.8737   18.0482 C   0  0  0  0  0  0  0  0  0  0  0  0
    5.6751  -10.5870   29.7637 O   0  0  0  0  0  0  0  0  0  0  0  0
    1.7612   -5.6483   26.7172 C   0  0  0  0  0  0  0  0  0  0  0  0
    0.2221   -9.8326   17.4055 C   0  0  0  0  0  0  0  0  0  0  0  0
    4.3850   -9.0730   28.6745 C   0  0  0  0  0  0  0  0  0  0  0  0
  1  7  4  0
  1 22  4  0
  2 17  4  0
  2 20  4  0
  2 28  4  0
  3  6  1  0
  3 19  1  0
  4 19  1  0
  4 26  1  0
  5 17  4  0
  5 18  4  0
  6 20  1  0
  6 26  1  0
  7 24  4  0
  8 15  4  0
  8 24  4  0
  9 14  4  0
  9 21  4  0
 10 12  4  0
 10 27  4  0
 11 12  4  0
 11 23  4  0
 13 23  4  0
 13 27  4  0
 14 20  4  0
 15 22  4  0
 16 18  4  0
 16 25  2  0
 16 28  4  0
 21 28  4  0
 24 27  1  0
M  END
$$$$

 Created by Python create_sdf_string function

 28 31  0  0  0  0  0  0  0  0999 V2000
   -1.0054  -13.0622   19.1198 C   0  0  0  0  0  0  0  0  0  0  0  0
    3.1478   -8.5360   28.5161 C   0  0  0  0  0  0  0  0  0  0  0  0
    0.5798   -7.1906   27.9330 C   0  0  0  0  0  0  0  0  0  0  0  0
    0.3978   -5.1561   26.6955 C   0  0  0  0  0  0  0  0  0  0  0  0
    2.3063  -10.0533   30.0125 C   0  0  0  0  0  0  0  0  0  0  0  0
    1.8591   -6.8254   27.4685 N   0  0  0  0  0  0  0  0  0  0  0  0
   -0.2167  -12.1055   18.5568 C   0  0  0  0  0  0  0  0  0  0  0  0
   -2.0661  -10.6994   18.1916 C   0  0  0  0  0  0  0  0  0  0  0  0
    5.2703   -7.5691   27.1123 C   0  0  0  0  0  0  0  0  0  0  0  0
    1.6204   -9.9887   17.2935 C   0  0  0  0  0  0  0  0  0  0  0  0
    1.8931   -7.9265   16.2047 C   0  0  0  0  0  0  0  0  0  0  0  0
    2.4396   -9.0801   16.7132 C   0  0  0  0  0  0  0  0  0  0  0  0
   -0.2575   -8.6234   16.8582 C   0  0  0  0  0  0  0  0  0  0  0  0
    4.0614   -7.0367   27.0106 N   0  0  0  0  0  0  0  0  0  0  0  0
   -2.9133  -11.6279   18.7578 C   0  0  0  0  0  0  0  0  0  0  0  0
    4.5688  -10.1291   29.5758 C   0  0  0  0  0  0  0  0  0  0  0  0
    2.1008   -9.0410   29.1852 N   0  0  0  0  0  0  0  0  0  0  0  0
    3.4829  -10.5697   30.2091 N   0  0  0  0  0  0  0  0  0  0  0  0
   -0.3363   -6.1172   27.5628 C   0  0  0  0  0  0  0  0  0  0  0  0
    3.0331   -7.4400   27.6362 C   0  0  0  0  0  0  0  0  0  0  0  0
    5.4553   -8.5933   27.9644 C   0  0  0  0  0  0  0  0  0  0  0  0
   -2.3870  -12.8440   19.2512 C   0  0  0  0  0  0  0  0  0  0  0  0
    0.5331   -7.6964   16.2751 C   0  0  0  0  0  0  0  0  0  0  0  0
   -0.6740  -10.8737   18.0482 C   0  0  0  0  0  0  0  0  0  0  0  0
    5.6751  -10.5870   29.7637 O   0  0  0  0  0  0  0  0  0  0  0  0
    1.7612   -5.6483   26.7172 C   0  0  0  0  0  0  0  0  0  0  0  0
    0.2221   -9.8326   17.4055 C   0  0  0  0  0  0  0  0  0  0  0  0
    4.3850   -9.0730   28.6745 C   0  0  0  0  0  0  0  0  0  0  0  0
  1  7  4  0
  1 22  4  0
  2 17  4  0
  2 20  4  0
  2 28  4  0
  3  6  1  0
  3 19  1  0
  4 19  1  0
  4 26  1  0
  5 17  4  0
  5 18  4  0
  6 20  1  0
  6 26  1  0
  7 24  4  0
  8 15  4  0
  8 24  4  0
  9 14  4  0
  9 21  4  0
 10 12  4  0
 10 27  4  0
 11 12  4  0
 11 23  4  0
 13 23  4  0
 13 27  4  0
 14 20  4  0
 15 22  4  0
 16 18  4  0
 16 25  2  0
 16 28  4  0
 21 28  4  0
 24 27  1  0
M  END
$$$$

 Created by Python create_sdf_string function

 28 31  0  0  0  0  0  0  0  0999 V2000
   -1.0054  -13.0622   19.1198 C   0  0  0  0  0  0  0  0  0  0  0  0
    3.1478   -8.5360   28.5161 C   0  0  0  0  0  0  0  0  0  0  0  0
    0.5798   -7.1906   27.9330 C   0  0  0  0  0  0  0  0  0  0  0  0
    0.3978   -5.1561   26.6955 C   0  0  0  0  0  0  0  0  0  0  0  0
    2.3063  -10.0533   30.0125 C   0  0  0  0  0  0  0  0  0  0  0  0
    1.8591   -6.8254   27.4685 N   0  0  0  0  0  0  0  0  0  0  0  0
   -0.2167  -12.1055   18.5568 C   0  0  0  0  0  0  0  0  0  0  0  0
   -2.0661  -10.6994   18.1916 C   0  0  0  0  0  0  0  0  0  0  0  0
    5.2703   -7.5691   27.1123 C   0  0  0  0  0  0  0  0  0  0  0  0
    1.6204   -9.9887   17.2935 C   0  0  0  0  0  0  0  0  0  0  0  0
    1.8931   -7.9265   16.2047 C   0  0  0  0  0  0  0  0  0  0  0  0
    2.4396   -9.0801   16.7132 C   0  0  0  0  0  0  0  0  0  0  0  0
   -0.2575   -8.6234   16.8582 C   0  0  0  0  0  0  0  0  0  0  0  0
    4.0614   -7.0367   27.0106 N   0  0  0  0  0  0  0  0  0  0  0  0
   -2.9133  -11.6279   18.7578 C   0  0  0  0  0  0  0  0  0  0  0  0
    4.5688  -10.1291   29.5758 C   0  0  0  0  0  0  0  0  0  0  0  0
    2.1008   -9.0410   29.1852 N   0  0  0  0  0  0  0  0  0  0  0  0
    3.4829  -10.5697   30.2091 N   0  0  0  0  0  0  0  0  0  0  0  0
   -0.3363   -6.1172   27.5628 C   0  0  0  0  0  0  0  0  0  0  0  0
    3.0331   -7.4400   27.6362 C   0  0  0  0  0  0  0  0  0  0  0  0
    5.4553   -8.5933   27.9644 C   0  0  0  0  0  0  0  0  0  0  0  0
   -2.3870  -12.8440   19.2512 C   0  0  0  0  0  0  0  0  0  0  0  0
    0.5331   -7.6964   16.2751 C   0  0  0  0  0  0  0  0  0  0  0  0
   -0.6740  -10.8737   18.0482 C   0  0  0  0  0  0  0  0  0  0  0  0
    5.6751  -10.5870   29.7637 O   0  0  0  0  0  0  0  0  0  0  0  0
    1.7612   -5.6483   26.7172 C   0  0  0  0  0  0  0  0  0  0  0  0
    0.2221   -9.8326   17.4055 C   0  0  0  0  0  0  0  0  0  0  0  0
    4.3850   -9.0730   28.6745 C   0  0  0  0  0  0  0  0  0  0  0  0
  1  7  4  0
  1 22  4  0
  2 17  4  0
  2 20  4  0
  2 28  4  0
  3  6  1  0
  3 19  1  0
  4 19  1  0
  4 26  1  0
  5 17  4  0
  5 18  4  0
  6 20  1  0
  6 26  1  0
  7 24  4  0
  8 15  4  0
  8 24  4  0
  9 14  4  0
  9 21  4  0
 10 12  4  0
 10 27  4  0
 11 12  4  0
 11 23  4  0
 13 23  4  0
 13 27  4  0
 14 20  4  0
 15 22  4  0
 16 18  4  0
 16 25  2  0
 16 28  4  0
 21 28  4  0
 24 27  1  0
M  END
$$$$

 Created by Python create_sdf_string function

 28 31  0  0  0  0  0  0  0  0999 V2000
   -1.0054  -13.0622   19.1198 C   0  0  0  0  0  0  0  0  0  0  0  0
    3.1478   -8.5360   28.5161 C   0  0  0  0  0  0  0  0  0  0  0  0
    0.5798   -7.1906   27.9330 C   0  0  0  0  0  0  0  0  0  0  0  0
    0.3978   -5.1561   26.6955 C   0  0  0  0  0  0  0  0  0  0  0  0
    2.3063  -10.0533   30.0125 C   0  0  0  0  0  0  0  0  0  0  0  0
    1.8591   -6.8254   27.4685 N   0  0  0  0  0  0  0  0  0  0  0  0
   -0.2167  -12.1055   18.5568 C   0  0  0  0  0  0  0  0  0  0  0  0
   -2.0661  -10.6994   18.1916 C   0  0  0  0  0  0  0  0  0  0  0  0
    5.2703   -7.5691   27.1123 C   0  0  0  0  0  0  0  0  0  0  0  0
    1.6204   -9.9887   17.2935 C   0  0  0  0  0  0  0  0  0  0  0  0
    1.8931   -7.9265   16.2047 C   0  0  0  0  0  0  0  0  0  0  0  0
    2.4396   -9.0801   16.7132 C   0  0  0  0  0  0  0  0  0  0  0  0
   -0.2575   -8.6234   16.8582 C   0  0  0  0  0  0  0  0  0  0  0  0
    4.0614   -7.0367   27.0106 N   0  0  0  0  0  0  0  0  0  0  0  0
   -2.9133  -11.6279   18.7578 C   0  0  0  0  0  0  0  0  0  0  0  0
    4.5688  -10.1291   29.5758 C   0  0  0  0  0  0  0  0  0  0  0  0
    2.1008   -9.0410   29.1852 N   0  0  0  0  0  0  0  0  0  0  0  0
    3.4829  -10.5697   30.2091 N   0  0  0  0  0  0  0  0  0  0  0  0
   -0.3363   -6.1172   27.5628 C   0  0  0  0  0  0  0  0  0  0  0  0
    3.0331   -7.4400   27.6362 C   0  0  0  0  0  0  0  0  0  0  0  0
    5.4553   -8.5933   27.9644 C   0  0  0  0  0  0  0  0  0  0  0  0
   -2.3870  -12.8440   19.2512 C   0  0  0  0  0  0  0  0  0  0  0  0
    0.5331   -7.6964   16.2751 C   0  0  0  0  0  0  0  0  0  0  0  0
   -0.6740  -10.8737   18.0482 C   0  0  0  0  0  0  0  0  0  0  0  0
    5.6751  -10.5870   29.7637 O   0  0  0  0  0  0  0  0  0  0  0  0
    1.7612   -5.6483   26.7172 C   0  0  0  0  0  0  0  0  0  0  0  0
    0.2221   -9.8326   17.4055 C   0  0  0  0  0  0  0  0  0  0  0  0
    4.3850   -9.0730   28.6745 C   0  0  0  0  0  0  0  0  0  0  0  0
  1  7  4  0
  1 22  4  0
  2 17  4  0
  2 20  4  0
  2 28  4  0
  3  6  1  0
  3 19  1  0
  4 19  1  0
  4 26  1  0
  5 17  4  0
  5 18  4  0
  6 20  1  0
  6 26  1  0
  7 24  4  0
  8 15  4  0
  8 24  4  0
  9 14  4  0
  9 21  4  0
 10 12  4  0
 10 27  4  0
 11 12  4  0
 11 23  4  0
 13 23  4  0
 13 27  4  0
 14 20  4  0
 15 22  4  0
 16 18  4  0
 16 25  2  0
 16 28  4  0
 21 28  4  0
 24 27  1  0
M  END
$$$$

 Created by Python create_sdf_string function

 28 31  0  0  0  0  0  0  0  0999 V2000
   -1.0054  -13.0622   19.1198 C   0  0  0  0  0  0  0  0  0  0  0  0
    3.1478   -8.5360   28.5161 C   0  0  0  0  0  0  0  0  0  0  0  0
    0.5798   -7.1906   27.9330 C   0  0  0  0  0  0  0  0  0  0  0  0
    0.3978   -5.1561   26.6955 C   0  0  0  0  0  0  0  0  0  0  0  0
    2.3063  -10.0533   30.0125 C   0  0  0  0  0  0  0  0  0  0  0  0
    1.8591   -6.8254   27.4685 N   0  0  0  0  0  0  0  0  0  0  0  0
   -0.2167  -12.1055   18.5568 C   0  0  0  0  0  0  0  0  0  0  0  0
   -2.0661  -10.6994   18.1916 C   0  0  0  0  0  0  0  0  0  0  0  0
    5.2703   -7.5691   27.1123 C   0  0  0  0  0  0  0  0  0  0  0  0
    1.6204   -9.9887   17.2935 C   0  0  0  0  0  0  0  0  0  0  0  0
    1.8931   -7.9265   16.2047 C   0  0  0  0  0  0  0  0  0  0  0  0
    2.4396   -9.0801   16.7132 C   0  0  0  0  0  0  0  0  0  0  0  0
   -0.2575   -8.6234   16.8582 C   0  0  0  0  0  0  0  0  0  0  0  0
    4.0614   -7.0367   27.0106 N   0  0  0  0  0  0  0  0  0  0  0  0
   -2.9133  -11.6279   18.7578 C   0  0  0  0  0  0  0  0  0  0  0  0
    4.5688  -10.1291   29.5758 C   0  0  0  0  0  0  0  0  0  0  0  0
    2.1008   -9.0410   29.1852 N   0  0  0  0  0  0  0  0  0  0  0  0
    3.4829  -10.5697   30.2091 N   0  0  0  0  0  0  0  0  0  0  0  0
   -0.3363   -6.1172   27.5628 C   0  0  0  0  0  0  0  0  0  0  0  0
    3.0331   -7.4400   27.6362 C   0  0  0  0  0  0  0  0  0  0  0  0
    5.4553   -8.5933   27.9644 C   0  0  0  0  0  0  0  0  0  0  0  0
   -2.3870  -12.8440   19.2512 C   0  0  0  0  0  0  0  0  0  0  0  0
    0.5331   -7.6964   16.2751 C   0  0  0  0  0  0  0  0  0  0  0  0
   -0.6740  -10.8737   18.0482 C   0  0  0  0  0  0  0  0  0  0  0  0
    5.6751  -10.5870   29.7637 O   0  0  0  0  0  0  0  0  0  0  0  0
    1.7612   -5.6483   26.7172 C   0  0  0  0  0  0  0  0  0  0  0  0
    0.2221   -9.8326   17.4055 C   0  0  0  0  0  0  0  0  0  0  0  0
    4.3850   -9.0730   28.6745 C   0  0  0  0  0  0  0  0  0  0  0  0
  1  7  4  0
  1 22  4  0
  2 17  4  0
  2 20  4  0
  2 28  4  0
  3  6  1  0
  3 19  1  0
  4 19  1  0
  4 26  1  0
  5 17  4  0
  5 18  4  0
  6 20  1  0
  6 26  1  0
  7 24  4  0
  8 15  4  0
  8 24  4  0
  9 14  4  0
  9 21  4  0
 10 12  4  0
 10 27  4  0
 11 12  4  0
 11 23  4  0
 13 23  4  0
 13 27  4  0
 14 20  4  0
 15 22  4  0
 16 18  4  0
 16 25  2  0
 16 28  4  0
 21 28  4  0
 24 27  1  0
M  END
$$$$

 Created by Python create_sdf_string function

 28 31  0  0  0  0  0  0  0  0999 V2000
   -1.0054  -13.0622   19.1198 C   0  0  0  0  0  0  0  0  0  0  0  0
    3.1478   -8.5360   28.5161 C   0  0  0  0  0  0  0  0  0  0  0  0
    0.5798   -7.1906   27.9330 C   0  0  0  0  0  0  0  0  0  0  0  0
    0.3978   -5.1561   26.6955 C   0  0  0  0  0  0  0  0  0  0  0  0
    2.3063  -10.0533   30.0125 C   0  0  0  0  0  0  0  0  0  0  0  0
    1.8591   -6.8254   27.4685 N   0  0  0  0  0  0  0  0  0  0  0  0
   -0.2167  -12.1055   18.5568 C   0  0  0  0  0  0  0  0  0  0  0  0
   -2.0661  -10.6994   18.1916 C   0  0  0  0  0  0  0  0  0  0  0  0
    5.2703   -7.5691   27.1123 C   0  0  0  0  0  0  0  0  0  0  0  0
    1.6204   -9.9887   17.2935 C   0  0  0  0  0  0  0  0  0  0  0  0
    1.8931   -7.9265   16.2047 C   0  0  0  0  0  0  0  0  0  0  0  0
    2.4396   -9.0801   16.7132 C   0  0  0  0  0  0  0  0  0  0  0  0
   -0.2575   -8.6234   16.8582 C   0  0  0  0  0  0  0  0  0  0  0  0
    4.0614   -7.0367   27.0106 N   0  0  0  0  0  0  0  0  0  0  0  0
   -2.9133  -11.6279   18.7578 C   0  0  0  0  0  0  0  0  0  0  0  0
    4.5688  -10.1291   29.5758 C   0  0  0  0  0  0  0  0  0  0  0  0
    2.1008   -9.0410   29.1852 N   0  0  0  0  0  0  0  0  0  0  0  0
    3.4829  -10.5697   30.2091 N   0  0  0  0  0  0  0  0  0  0  0  0
   -0.3363   -6.1172   27.5628 C   0  0  0  0  0  0  0  0  0  0  0  0
    3.0331   -7.4400   27.6362 C   0  0  0  0  0  0  0  0  0  0  0  0
    5.4553   -8.5933   27.9644 C   0  0  0  0  0  0  0  0  0  0  0  0
   -2.3870  -12.8440   19.2512 C   0  0  0  0  0  0  0  0  0  0  0  0
    0.5331   -7.6964   16.2751 C   0  0  0  0  0  0  0  0  0  0  0  0
   -0.6740  -10.8737   18.0482 C   0  0  0  0  0  0  0  0  0  0  0  0
    5.6751  -10.5870   29.7637 O   0  0  0  0  0  0  0  0  0  0  0  0
    1.7612   -5.6483   26.7172 C   0  0  0  0  0  0  0  0  0  0  0  0
    0.2221   -9.8326   17.4055 C   0  0  0  0  0  0  0  0  0  0  0  0
    4.3850   -9.0730   28.6745 C   0  0  0  0  0  0  0  0  0  0  0  0
  1  7  4  0
  1 22  4  0
  2 17  4  0
  2 20  4  0
  2 28  4  0
  3  6  1  0
  3 19  1  0
  4 19  1  0
  4 26  1  0
  5 17  4  0
  5 18  4  0
  6 20  1  0
  6 26  1  0
  7 24  4  0
  8 15  4  0
  8 24  4  0
  9 14  4  0
  9 21  4  0
 10 12  4  0
 10 27  4  0
 11 12  4  0
 11 23  4  0
 13 23  4  0
 13 27  4  0
 14 20  4  0
 15 22  4  0
 16 18  4  0
 16 25  2  0
 16 28  4  0
 21 28  4  0
 24 27  1  0
M  END
$$$$

 Created by Python create_sdf_string function

 28 31  0  0  0  0  0  0  0  0999 V2000
   -1.0054  -13.0622   19.1198 C   0  0  0  0  0  0  0  0  0  0  0  0
    3.1478   -8.5360   28.5161 C   0  0  0  0  0  0  0  0  0  0  0  0
    0.5798   -7.1906   27.9330 C   0  0  0  0  0  0  0  0  0  0  0  0
    0.3978   -5.1561   26.6955 C   0  0  0  0  0  0  0  0  0  0  0  0
    2.3063  -10.0533   30.0125 C   0  0  0  0  0  0  0  0  0  0  0  0
    1.8591   -6.8254   27.4685 N   0  0  0  0  0  0  0  0  0  0  0  0
   -0.2167  -12.1055   18.5568 C   0  0  0  0  0  0  0  0  0  0  0  0
   -2.0661  -10.6994   18.1916 C   0  0  0  0  0  0  0  0  0  0  0  0
    5.2703   -7.5691   27.1123 C   0  0  0  0  0  0  0  0  0  0  0  0
    1.6204   -9.9887   17.2935 C   0  0  0  0  0  0  0  0  0  0  0  0
    1.8931   -7.9265   16.2047 C   0  0  0  0  0  0  0  0  0  0  0  0
    2.4396   -9.0801   16.7132 C   0  0  0  0  0  0  0  0  0  0  0  0
   -0.2575   -8.6234   16.8582 C   0  0  0  0  0  0  0  0  0  0  0  0
    4.0614   -7.0367   27.0106 N   0  0  0  0  0  0  0  0  0  0  0  0
   -2.9133  -11.6279   18.7578 C   0  0  0  0  0  0  0  0  0  0  0  0
    4.5688  -10.1291   29.5758 C   0  0  0  0  0  0  0  0  0  0  0  0
    2.1008   -9.0410   29.1852 N   0  0  0  0  0  0  0  0  0  0  0  0
    3.4829  -10.5697   30.2091 N   0  0  0  0  0  0  0  0  0  0  0  0
   -0.3363   -6.1172   27.5628 C   0  0  0  0  0  0  0  0  0  0  0  0
    3.0331   -7.4400   27.6362 C   0  0  0  0  0  0  0  0  0  0  0  0
    5.4553   -8.5933   27.9644 C   0  0  0  0  0  0  0  0  0  0  0  0
   -2.3870  -12.8440   19.2512 C   0  0  0  0  0  0  0  0  0  0  0  0
    0.5331   -7.6964   16.2751 C   0  0  0  0  0  0  0  0  0  0  0  0
   -0.6740  -10.8737   18.0482 C   0  0  0  0  0  0  0  0  0  0  0  0
    5.6751  -10.5870   29.7637 O   0  0  0  0  0  0  0  0  0  0  0  0
    1.7612   -5.6483   26.7172 C   0  0  0  0  0  0  0  0  0  0  0  0
    0.2221   -9.8326   17.4055 C   0  0  0  0  0  0  0  0  0  0  0  0
    4.3850   -9.0730   28.6745 C   0  0  0  0  0  0  0  0  0  0  0  0
  1  7  4  0
  1 22  4  0
  2 17  4  0
  2 20  4  0
  2 28  4  0
  3  6  1  0
  3 19  1  0
  4 19  1  0
  4 26  1  0
  5 17  4  0
  5 18  4  0
  6 20  1  0
  6 26  1  0
  7 24  4  0
  8 15  4  0
  8 24  4  0
  9 14  4  0
  9 21  4  0
 10 12  4  0
 10 27  4  0
 11 12  4  0
 11 23  4  0
 13 23  4  0
 13 27  4  0
 14 20  4  0
 15 22  4  0
 16 18  4  0
 16 25  2  0
 16 28  4  0
 21 28  4  0
 24 27  1  0
M  END
$$$$

 Created by Python create_sdf_string function

 28 31  0  0  0  0  0  0  0  0999 V2000
   -1.0054  -13.0622   19.1198 C   0  0  0  0  0  0  0  0  0  0  0  0
    3.1478   -8.5360   28.5161 C   0  0  0  0  0  0  0  0  0  0  0  0
    0.5798   -7.1906   27.9330 C   0  0  0  0  0  0  0  0  0  0  0  0
    0.3978   -5.1561   26.6955 C   0  0  0  0  0  0  0  0  0  0  0  0
    2.3063  -10.0533   30.0125 C   0  0  0  0  0  0  0  0  0  0  0  0
    1.8591   -6.8254   27.4685 N   0  0  0  0  0  0  0  0  0  0  0  0
   -0.2167  -12.1055   18.5568 C   0  0  0  0  0  0  0  0  0  0  0  0
   -2.0661  -10.6994   18.1916 C   0  0  0  0  0  0  0  0  0  0  0  0
    5.2703   -7.5691   27.1123 C   0  0  0  0  0  0  0  0  0  0  0  0
    1.6204   -9.9887   17.2935 C   0  0  0  0  0  0  0  0  0  0  0  0
    1.8931   -7.9265   16.2047 C   0  0  0  0  0  0  0  0  0  0  0  0
    2.4396   -9.0801   16.7132 C   0  0  0  0  0  0  0  0  0  0  0  0
   -0.2575   -8.6234   16.8582 C   0  0  0  0  0  0  0  0  0  0  0  0
    4.0614   -7.0367   27.0106 N   0  0  0  0  0  0  0  0  0  0  0  0
   -2.9133  -11.6279   18.7578 C   0  0  0  0  0  0  0  0  0  0  0  0
    4.5688  -10.1291   29.5758 C   0  0  0  0  0  0  0  0  0  0  0  0
    2.1008   -9.0410   29.1852 N   0  0  0  0  0  0  0  0  0  0  0  0
    3.4829  -10.5697   30.2091 N   0  0  0  0  0  0  0  0  0  0  0  0
   -0.3363   -6.1172   27.5628 C   0  0  0  0  0  0  0  0  0  0  0  0
    3.0331   -7.4400   27.6362 C   0  0  0  0  0  0  0  0  0  0  0  0
    5.4553   -8.5933   27.9644 C   0  0  0  0  0  0  0  0  0  0  0  0
   -2.3870  -12.8440   19.2512 C   0  0  0  0  0  0  0  0  0  0  0  0
    0.5331   -7.6964   16.2751 C   0  0  0  0  0  0  0  0  0  0  0  0
   -0.6740  -10.8737   18.0482 C   0  0  0  0  0  0  0  0  0  0  0  0
    5.6751  -10.5870   29.7637 O   0  0  0  0  0  0  0  0  0  0  0  0
    1.7612   -5.6483   26.7172 C   0  0  0  0  0  0  0  0  0  0  0  0
    0.2221   -9.8326   17.4055 C   0  0  0  0  0  0  0  0  0  0  0  0
    4.3850   -9.0730   28.6745 C   0  0  0  0  0  0  0  0  0  0  0  0
  1  7  4  0
  1 22  4  0
  2 17  4  0
  2 20  4  0
  2 28  4  0
  3  6  1  0
  3 19  1  0
  4 19  1  0
  4 26  1  0
  5 17  4  0
  5 18  4  0
  6 20  1  0
  6 26  1  0
  7 24  4  0
  8 15  4  0
  8 24  4  0
  9 14  4  0
  9 21  4  0
 10 12  4  0
 10 27  4  0
 11 12  4  0
 11 23  4  0
 13 23  4  0
 13 27  4  0
 14 20  4  0
 15 22  4  0
 16 18  4  0
 16 25  2  0
 16 28  4  0
 21 28  4  0
 24 27  1  0
M  END
$$$$

 Created by Python create_sdf_string function

 28 31  0  0  0  0  0  0  0  0999 V2000
   -1.0054  -13.0622   19.1198 C   0  0  0  0  0  0  0  0  0  0  0  0
    3.1478   -8.5360   28.5161 C   0  0  0  0  0  0  0  0  0  0  0  0
    0.5798   -7.1906   27.9330 C   0  0  0  0  0  0  0  0  0  0  0  0
    0.3978   -5.1561   26.6955 C   0  0  0  0  0  0  0  0  0  0  0  0
    2.3063  -10.0533   30.0125 C   0  0  0  0  0  0  0  0  0  0  0  0
    1.8591   -6.8254   27.4685 N   0  0  0  0  0  0  0  0  0  0  0  0
   -0.2167  -12.1055   18.5568 C   0  0  0  0  0  0  0  0  0  0  0  0
   -2.0661  -10.6994   18.1916 C   0  0  0  0  0  0  0  0  0  0  0  0
    5.2703   -7.5691   27.1123 C   0  0  0  0  0  0  0  0  0  0  0  0
    1.6204   -9.9887   17.2935 C   0  0  0  0  0  0  0  0  0  0  0  0
    1.8931   -7.9265   16.2047 C   0  0  0  0  0  0  0  0  0  0  0  0
    2.4396   -9.0801   16.7132 C   0  0  0  0  0  0  0  0  0  0  0  0
   -0.2575   -8.6234   16.8582 C   0  0  0  0  0  0  0  0  0  0  0  0
    4.0614   -7.0367   27.0106 N   0  0  0  0  0  0  0  0  0  0  0  0
   -2.9133  -11.6279   18.7578 C   0  0  0  0  0  0  0  0  0  0  0  0
    4.5688  -10.1291   29.5758 C   0  0  0  0  0  0  0  0  0  0  0  0
    2.1008   -9.0410   29.1852 N   0  0  0  0  0  0  0  0  0  0  0  0
    3.4829  -10.5697   30.2091 N   0  0  0  0  0  0  0  0  0  0  0  0
   -0.3363   -6.1172   27.5628 C   0  0  0  0  0  0  0  0  0  0  0  0
    3.0331   -7.4400   27.6362 C   0  0  0  0  0  0  0  0  0  0  0  0
    5.4553   -8.5933   27.9644 C   0  0  0  0  0  0  0  0  0  0  0  0
   -2.3870  -12.8440   19.2512 C   0  0  0  0  0  0  0  0  0  0  0  0
    0.5331   -7.6964   16.2751 C   0  0  0  0  0  0  0  0  0  0  0  0
   -0.6740  -10.8737   18.0482 C   0  0  0  0  0  0  0  0  0  0  0  0
    5.6751  -10.5870   29.7637 O   0  0  0  0  0  0  0  0  0  0  0  0
    1.7612   -5.6483   26.7172 C   0  0  0  0  0  0  0  0  0  0  0  0
    0.2221   -9.8326   17.4055 C   0  0  0  0  0  0  0  0  0  0  0  0
    4.3850   -9.0730   28.6745 C   0  0  0  0  0  0  0  0  0  0  0  0
  1  7  4  0
  1 22  4  0
  2 17  4  0
  2 20  4  0
  2 28  4  0
  3  6  1  0
  3 19  1  0
  4 19  1  0
  4 26  1  0
  5 17  4  0
  5 18  4  0
  6 20  1  0
  6 26  1  0
  7 24  4  0
  8 15  4  0
  8 24  4  0
  9 14  4  0
  9 21  4  0
 10 12  4  0
 10 27  4  0
 11 12  4  0
 11 23  4  0
 13 23  4  0
 13 27  4  0
 14 20  4  0
 15 22  4  0
 16 18  4  0
 16 25  2  0
 16 28  4  0
 21 28  4  0
 24 27  1  0
M  END
$$$$

 Created by Python create_sdf_string function

 28 31  0  0  0  0  0  0  0  0999 V2000
   -1.0054  -13.0622   19.1198 C   0  0  0  0  0  0  0  0  0  0  0  0
    3.1478   -8.5360   28.5161 C   0  0  0  0  0  0  0  0  0  0  0  0
    0.5798   -7.1906   27.9330 C   0  0  0  0  0  0  0  0  0  0  0  0
    0.3978   -5.1561   26.6955 C   0  0  0  0  0  0  0  0  0  0  0  0
    2.3063  -10.0533   30.0125 C   0  0  0  0  0  0  0  0  0  0  0  0
    1.8591   -6.8254   27.4685 N   0  0  0  0  0  0  0  0  0  0  0  0
   -0.2167  -12.1055   18.5568 C   0  0  0  0  0  0  0  0  0  0  0  0
   -2.0661  -10.6994   18.1916 C   0  0  0  0  0  0  0  0  0  0  0  0
    5.2703   -7.5691   27.1123 C   0  0  0  0  0  0  0  0  0  0  0  0
    1.6204   -9.9887   17.2935 C   0  0  0  0  0  0  0  0  0  0  0  0
    1.8931   -7.9265   16.2047 C   0  0  0  0  0  0  0  0  0  0  0  0
    2.4396   -9.0801   16.7132 C   0  0  0  0  0  0  0  0  0  0  0  0
   -0.2575   -8.6234   16.8582 C   0  0  0  0  0  0  0  0  0  0  0  0
    4.0614   -7.0367   27.0106 N   0  0  0  0  0  0  0  0  0  0  0  0
   -2.9133  -11.6279   18.7578 C   0  0  0  0  0  0  0  0  0  0  0  0
    4.5688  -10.1291   29.5758 C   0  0  0  0  0  0  0  0  0  0  0  0
    2.1008   -9.0410   29.1852 N   0  0  0  0  0  0  0  0  0  0  0  0
    3.4829  -10.5697   30.2091 N   0  0  0  0  0  0  0  0  0  0  0  0
   -0.3363   -6.1172   27.5628 C   0  0  0  0  0  0  0  0  0  0  0  0
    3.0331   -7.4400   27.6362 C   0  0  0  0  0  0  0  0  0  0  0  0
    5.4553   -8.5933   27.9644 C   0  0  0  0  0  0  0  0  0  0  0  0
   -2.3870  -12.8440   19.2512 C   0  0  0  0  0  0  0  0  0  0  0  0
    0.5331   -7.6964   16.2751 C   0  0  0  0  0  0  0  0  0  0  0  0
   -0.6740  -10.8737   18.0482 C   0  0  0  0  0  0  0  0  0  0  0  0
    5.6751  -10.5870   29.7637 O   0  0  0  0  0  0  0  0  0  0  0  0
    1.7612   -5.6483   26.7172 C   0  0  0  0  0  0  0  0  0  0  0  0
    0.2221   -9.8326   17.4055 C   0  0  0  0  0  0  0  0  0  0  0  0
    4.3850   -9.0730   28.6745 C   0  0  0  0  0  0  0  0  0  0  0  0
  1  7  4  0
  1 22  4  0
  2 17  4  0
  2 20  4  0
  2 28  4  0
  3  6  1  0
  3 19  1  0
  4 19  1  0
  4 26  1  0
  5 17  4  0
  5 18  4  0
  6 20  1  0
  6 26  1  0
  7 24  4  0
  8 15  4  0
  8 24  4  0
  9 14  4  0
  9 21  4  0
 10 12  4  0
 10 27  4  0
 11 12  4  0
 11 23  4  0
 13 23  4  0
 13 27  4  0
 14 20  4  0
 15 22  4  0
 16 18  4  0
 16 25  2  0
 16 28  4  0
 21 28  4  0
 24 27  1  0
M  END
$$$$

 Created by Python create_sdf_string function

 28 31  0  0  0  0  0  0  0  0999 V2000
   -1.0054  -13.0622   19.1198 C   0  0  0  0  0  0  0  0  0  0  0  0
    3.1478   -8.5360   28.5161 C   0  0  0  0  0  0  0  0  0  0  0  0
    0.5798   -7.1906   27.9330 C   0  0  0  0  0  0  0  0  0  0  0  0
    0.3978   -5.1561   26.6955 C   0  0  0  0  0  0  0  0  0  0  0  0
    2.3063  -10.0533   30.0125 C   0  0  0  0  0  0  0  0  0  0  0  0
    1.8591   -6.8254   27.4685 N   0  0  0  0  0  0  0  0  0  0  0  0
   -0.2167  -12.1055   18.5568 C   0  0  0  0  0  0  0  0  0  0  0  0
   -2.0661  -10.6994   18.1916 C   0  0  0  0  0  0  0  0  0  0  0  0
    5.2703   -7.5691   27.1123 C   0  0  0  0  0  0  0  0  0  0  0  0
    1.6204   -9.9887   17.2935 C   0  0  0  0  0  0  0  0  0  0  0  0
    1.8931   -7.9265   16.2047 C   0  0  0  0  0  0  0  0  0  0  0  0
    2.4396   -9.0801   16.7132 C   0  0  0  0  0  0  0  0  0  0  0  0
   -0.2575   -8.6234   16.8582 C   0  0  0  0  0  0  0  0  0  0  0  0
    4.0614   -7.0367   27.0106 N   0  0  0  0  0  0  0  0  0  0  0  0
   -2.9133  -11.6279   18.7578 C   0  0  0  0  0  0  0  0  0  0  0  0
    4.5688  -10.1291   29.5758 C   0  0  0  0  0  0  0  0  0  0  0  0
    2.1008   -9.0410   29.1852 N   0  0  0  0  0  0  0  0  0  0  0  0
    3.4829  -10.5697   30.2091 N   0  0  0  0  0  0  0  0  0  0  0  0
   -0.3363   -6.1172   27.5628 C   0  0  0  0  0  0  0  0  0  0  0  0
    3.0331   -7.4400   27.6362 C   0  0  0  0  0  0  0  0  0  0  0  0
    5.4553   -8.5933   27.9644 C   0  0  0  0  0  0  0  0  0  0  0  0
   -2.3870  -12.8440   19.2512 C   0  0  0  0  0  0  0  0  0  0  0  0
    0.5331   -7.6964   16.2751 C   0  0  0  0  0  0  0  0  0  0  0  0
   -0.6740  -10.8737   18.0482 C   0  0  0  0  0  0  0  0  0  0  0  0
    5.6751  -10.5870   29.7637 O   0  0  0  0  0  0  0  0  0  0  0  0
    1.7612   -5.6483   26.7172 C   0  0  0  0  0  0  0  0  0  0  0  0
    0.2221   -9.8326   17.4055 C   0  0  0  0  0  0  0  0  0  0  0  0
    4.3850   -9.0730   28.6745 C   0  0  0  0  0  0  0  0  0  0  0  0
  1  7  4  0
  1 22  4  0
  2 17  4  0
  2 20  4  0
  2 28  4  0
  3  6  1  0
  3 19  1  0
  4 19  1  0
  4 26  1  0
  5 17  4  0
  5 18  4  0
  6 20  1  0
  6 26  1  0
  7 24  4  0
  8 15  4  0
  8 24  4  0
  9 14  4  0
  9 21  4  0
 10 12  4  0
 10 27  4  0
 11 12  4  0
 11 23  4  0
 13 23  4  0
 13 27  4  0
 14 20  4  0
 15 22  4  0
 16 18  4  0
 16 25  2  0
 16 28  4  0
 21 28  4  0
 24 27  1  0
M  END
$$$$

 Created by Python create_sdf_string function

 28 31  0  0  0  0  0  0  0  0999 V2000
   -1.0054  -13.0622   19.1198 C   0  0  0  0  0  0  0  0  0  0  0  0
    3.1478   -8.5360   28.5161 C   0  0  0  0  0  0  0  0  0  0  0  0
    0.5798   -7.1906   27.9330 C   0  0  0  0  0  0  0  0  0  0  0  0
    0.3978   -5.1561   26.6955 C   0  0  0  0  0  0  0  0  0  0  0  0
    2.3063  -10.0533   30.0125 C   0  0  0  0  0  0  0  0  0  0  0  0
    1.8591   -6.8254   27.4685 N   0  0  0  0  0  0  0  0  0  0  0  0
   -0.2167  -12.1055   18.5568 C   0  0  0  0  0  0  0  0  0  0  0  0
   -2.0661  -10.6994   18.1916 C   0  0  0  0  0  0  0  0  0  0  0  0
    5.2703   -7.5691   27.1123 C   0  0  0  0  0  0  0  0  0  0  0  0
    1.6204   -9.9887   17.2935 C   0  0  0  0  0  0  0  0  0  0  0  0
    1.8931   -7.9265   16.2047 C   0  0  0  0  0  0  0  0  0  0  0  0
    2.4396   -9.0801   16.7132 C   0  0  0  0  0  0  0  0  0  0  0  0
   -0.2575   -8.6234   16.8582 C   0  0  0  0  0  0  0  0  0  0  0  0
    4.0614   -7.0367   27.0106 N   0  0  0  0  0  0  0  0  0  0  0  0
   -2.9133  -11.6279   18.7578 C   0  0  0  0  0  0  0  0  0  0  0  0
    4.5688  -10.1291   29.5758 C   0  0  0  0  0  0  0  0  0  0  0  0
    2.1008   -9.0410   29.1852 N   0  0  0  0  0  0  0  0  0  0  0  0
    3.4829  -10.5697   30.2091 N   0  0  0  0  0  0  0  0  0  0  0  0
   -0.3363   -6.1172   27.5628 C   0  0  0  0  0  0  0  0  0  0  0  0
    3.0331   -7.4400   27.6362 C   0  0  0  0  0  0  0  0  0  0  0  0
    5.4553   -8.5933   27.9644 C   0  0  0  0  0  0  0  0  0  0  0  0
   -2.3870  -12.8440   19.2512 C   0  0  0  0  0  0  0  0  0  0  0  0
    0.5331   -7.6964   16.2751 C   0  0  0  0  0  0  0  0  0  0  0  0
   -0.6740  -10.8737   18.0482 C   0  0  0  0  0  0  0  0  0  0  0  0
    5.6751  -10.5870   29.7637 O   0  0  0  0  0  0  0  0  0  0  0  0
    1.7612   -5.6483   26.7172 C   0  0  0  0  0  0  0  0  0  0  0  0
    0.2221   -9.8326   17.4055 C   0  0  0  0  0  0  0  0  0  0  0  0
    4.3850   -9.0730   28.6745 C   0  0  0  0  0  0  0  0  0  0  0  0
  1  7  4  0
  1 22  4  0
  2 17  4  0
  2 20  4  0
  2 28  4  0
  3  6  1  0
  3 19  1  0
  4 19  1  0
  4 26  1  0
  5 17  4  0
  5 18  4  0
  6 20  1  0
  6 26  1  0
  7 24  4  0
  8 15  4  0
  8 24  4  0
  9 14  4  0
  9 21  4  0
 10 12  4  0
 10 27  4  0
 11 12  4  0
 11 23  4  0
 13 23  4  0
 13 27  4  0
 14 20  4  0
 15 22  4  0
 16 18  4  0
 16 25  2  0
 16 28  4  0
 21 28  4  0
 24 27  1  0
M  END
$$$$

 Created by Python create_sdf_string function

 28 31  0  0  0  0  0  0  0  0999 V2000
   -1.0054  -13.0622   19.1198 C   0  0  0  0  0  0  0  0  0  0  0  0
    3.1478   -8.5360   28.5161 C   0  0  0  0  0  0  0  0  0  0  0  0
    0.5798   -7.1906   27.9330 C   0  0  0  0  0  0  0  0  0  0  0  0
    0.3978   -5.1561   26.6955 C   0  0  0  0  0  0  0  0  0  0  0  0
    2.3063  -10.0533   30.0125 C   0  0  0  0  0  0  0  0  0  0  0  0
    1.8591   -6.8254   27.4685 N   0  0  0  0  0  0  0  0  0  0  0  0
   -0.2167  -12.1055   18.5568 C   0  0  0  0  0  0  0  0  0  0  0  0
   -2.0661  -10.6994   18.1916 C   0  0  0  0  0  0  0  0  0  0  0  0
    5.2703   -7.5691   27.1123 C   0  0  0  0  0  0  0  0  0  0  0  0
    1.6204   -9.9887   17.2935 C   0  0  0  0  0  0  0  0  0  0  0  0
    1.8931   -7.9265   16.2047 C   0  0  0  0  0  0  0  0  0  0  0  0
    2.4396   -9.0801   16.7132 C   0  0  0  0  0  0  0  0  0  0  0  0
   -0.2575   -8.6234   16.8582 C   0  0  0  0  0  0  0  0  0  0  0  0
    4.0614   -7.0367   27.0106 N   0  0  0  0  0  0  0  0  0  0  0  0
   -2.9133  -11.6279   18.7578 C   0  0  0  0  0  0  0  0  0  0  0  0
    4.5688  -10.1291   29.5758 C   0  0  0  0  0  0  0  0  0  0  0  0
    2.1008   -9.0410   29.1852 N   0  0  0  0  0  0  0  0  0  0  0  0
    3.4829  -10.5697   30.2091 N   0  0  0  0  0  0  0  0  0  0  0  0
   -0.3363   -6.1172   27.5628 C   0  0  0  0  0  0  0  0  0  0  0  0
    3.0331   -7.4400   27.6362 C   0  0  0  0  0  0  0  0  0  0  0  0
    5.4553   -8.5933   27.9644 C   0  0  0  0  0  0  0  0  0  0  0  0
   -2.3870  -12.8440   19.2512 C   0  0  0  0  0  0  0  0  0  0  0  0
    0.5331   -7.6964   16.2751 C   0  0  0  0  0  0  0  0  0  0  0  0
   -0.6740  -10.8737   18.0482 C   0  0  0  0  0  0  0  0  0  0  0  0
    5.6751  -10.5870   29.7637 O   0  0  0  0  0  0  0  0  0  0  0  0
    1.7612   -5.6483   26.7172 C   0  0  0  0  0  0  0  0  0  0  0  0
    0.2221   -9.8326   17.4055 C   0  0  0  0  0  0  0  0  0  0  0  0
    4.3850   -9.0730   28.6745 C   0  0  0  0  0  0  0  0  0  0  0  0
  1  7  4  0
  1 22  4  0
  2 17  4  0
  2 20  4  0
  2 28  4  0
  3  6  1  0
  3 19  1  0
  4 19  1  0
  4 26  1  0
  5 17  4  0
  5 18  4  0
  6 20  1  0
  6 26  1  0
  7 24  4  0
  8 15  4  0
  8 24  4  0
  9 14  4  0
  9 21  4  0
 10 12  4  0
 10 27  4  0
 11 12  4  0
 11 23  4  0
 13 23  4  0
 13 27  4  0
 14 20  4  0
 15 22  4  0
 16 18  4  0
 16 25  2  0
 16 28  4  0
 21 28  4  0
 24 27  1  0
M  END
$$$$

 Created by Python create_sdf_string function

 28 31  0  0  0  0  0  0  0  0999 V2000
   -1.0054  -13.0622   19.1198 C   0  0  0  0  0  0  0  0  0  0  0  0
    3.1478   -8.5360   28.5161 C   0  0  0  0  0  0  0  0  0  0  0  0
    0.5798   -7.1906   27.9330 C   0  0  0  0  0  0  0  0  0  0  0  0
    0.3978   -5.1561   26.6955 C   0  0  0  0  0  0  0  0  0  0  0  0
    2.3063  -10.0533   30.0125 C   0  0  0  0  0  0  0  0  0  0  0  0
    1.8591   -6.8254   27.4685 N   0  0  0  0  0  0  0  0  0  0  0  0
   -0.2167  -12.1055   18.5568 C   0  0  0  0  0  0  0  0  0  0  0  0
   -2.0661  -10.6994   18.1916 C   0  0  0  0  0  0  0  0  0  0  0  0
    5.2703   -7.5691   27.1123 C   0  0  0  0  0  0  0  0  0  0  0  0
    1.6204   -9.9887   17.2935 C   0  0  0  0  0  0  0  0  0  0  0  0
    1.8931   -7.9265   16.2047 C   0  0  0  0  0  0  0  0  0  0  0  0
    2.4396   -9.0801   16.7132 C   0  0  0  0  0  0  0  0  0  0  0  0
   -0.2575   -8.6234   16.8582 C   0  0  0  0  0  0  0  0  0  0  0  0
    4.0614   -7.0367   27.0106 N   0  0  0  0  0  0  0  0  0  0  0  0
   -2.9133  -11.6279   18.7578 C   0  0  0  0  0  0  0  0  0  0  0  0
    4.5688  -10.1291   29.5758 C   0  0  0  0  0  0  0  0  0  0  0  0
    2.1008   -9.0410   29.1852 N   0  0  0  0  0  0  0  0  0  0  0  0
    3.4829  -10.5697   30.2091 N   0  0  0  0  0  0  0  0  0  0  0  0
   -0.3363   -6.1172   27.5628 C   0  0  0  0  0  0  0  0  0  0  0  0
    3.0331   -7.4400   27.6362 C   0  0  0  0  0  0  0  0  0  0  0  0
    5.4553   -8.5933   27.9644 C   0  0  0  0  0  0  0  0  0  0  0  0
   -2.3870  -12.8440   19.2512 C   0  0  0  0  0  0  0  0  0  0  0  0
    0.5331   -7.6964   16.2751 C   0  0  0  0  0  0  0  0  0  0  0  0
   -0.6740  -10.8737   18.0482 C   0  0  0  0  0  0  0  0  0  0  0  0
    5.6751  -10.5870   29.7637 O   0  0  0  0  0  0  0  0  0  0  0  0
    1.7612   -5.6483   26.7172 C   0  0  0  0  0  0  0  0  0  0  0  0
    0.2221   -9.8326   17.4055 C   0  0  0  0  0  0  0  0  0  0  0  0
    4.3850   -9.0730   28.6745 C   0  0  0  0  0  0  0  0  0  0  0  0
  1  7  4  0
  1 22  4  0
  2 17  4  0
  2 20  4  0
  2 28  4  0
  3  6  1  0
  3 19  1  0
  4 19  1  0
  4 26  1  0
  5 17  4  0
  5 18  4  0
  6 20  1  0
  6 26  1  0
  7 24  4  0
  8 15  4  0
  8 24  4  0
  9 14  4  0
  9 21  4  0
 10 12  4  0
 10 27  4  0
 11 12  4  0
 11 23  4  0
 13 23  4  0
 13 27  4  0
 14 20  4  0
 15 22  4  0
 16 18  4  0
 16 25  2  0
 16 28  4  0
 21 28  4  0
 24 27  1  0
M  END
$$$$

 Created by Python create_sdf_string function

 28 31  0  0  0  0  0  0  0  0999 V2000
   -1.0054  -13.0622   19.1198 C   0  0  0  0  0  0  0  0  0  0  0  0
    3.1478   -8.5360   28.5161 C   0  0  0  0  0  0  0  0  0  0  0  0
    0.5798   -7.1906   27.9330 C   0  0  0  0  0  0  0  0  0  0  0  0
    0.3978   -5.1561   26.6955 C   0  0  0  0  0  0  0  0  0  0  0  0
    2.3063  -10.0533   30.0125 C   0  0  0  0  0  0  0  0  0  0  0  0
    1.8591   -6.8254   27.4685 N   0  0  0  0  0  0  0  0  0  0  0  0
   -0.2167  -12.1055   18.5568 C   0  0  0  0  0  0  0  0  0  0  0  0
   -2.0661  -10.6994   18.1916 C   0  0  0  0  0  0  0  0  0  0  0  0
    5.2703   -7.5691   27.1123 C   0  0  0  0  0  0  0  0  0  0  0  0
    1.6204   -9.9887   17.2935 C   0  0  0  0  0  0  0  0  0  0  0  0
    1.8931   -7.9265   16.2047 C   0  0  0  0  0  0  0  0  0  0  0  0
    2.4396   -9.0801   16.7132 C   0  0  0  0  0  0  0  0  0  0  0  0
   -0.2575   -8.6234   16.8582 C   0  0  0  0  0  0  0  0  0  0  0  0
    4.0614   -7.0367   27.0106 N   0  0  0  0  0  0  0  0  0  0  0  0
   -2.9133  -11.6279   18.7578 C   0  0  0  0  0  0  0  0  0  0  0  0
    4.5688  -10.1291   29.5758 C   0  0  0  0  0  0  0  0  0  0  0  0
    2.1008   -9.0410   29.1852 N   0  0  0  0  0  0  0  0  0  0  0  0
    3.4829  -10.5697   30.2091 N   0  0  0  0  0  0  0  0  0  0  0  0
   -0.3363   -6.1172   27.5628 C   0  0  0  0  0  0  0  0  0  0  0  0
    3.0331   -7.4400   27.6362 C   0  0  0  0  0  0  0  0  0  0  0  0
    5.4553   -8.5933   27.9644 C   0  0  0  0  0  0  0  0  0  0  0  0
   -2.3870  -12.8440   19.2512 C   0  0  0  0  0  0  0  0  0  0  0  0
    0.5331   -7.6964   16.2751 C   0  0  0  0  0  0  0  0  0  0  0  0
   -0.6740  -10.8737   18.0482 C   0  0  0  0  0  0  0  0  0  0  0  0
    5.6751  -10.5870   29.7637 O   0  0  0  0  0  0  0  0  0  0  0  0
    1.7612   -5.6483   26.7172 C   0  0  0  0  0  0  0  0  0  0  0  0
    0.2221   -9.8326   17.4055 C   0  0  0  0  0  0  0  0  0  0  0  0
    4.3850   -9.0730   28.6745 C   0  0  0  0  0  0  0  0  0  0  0  0
  1  7  4  0
  1 22  4  0
  2 17  4  0
  2 20  4  0
  2 28  4  0
  3  6  1  0
  3 19  1  0
  4 19  1  0
  4 26  1  0
  5 17  4  0
  5 18  4  0
  6 20  1  0
  6 26  1  0
  7 24  4  0
  8 15  4  0
  8 24  4  0
  9 14  4  0
  9 21  4  0
 10 12  4  0
 10 27  4  0
 11 12  4  0
 11 23  4  0
 13 23  4  0
 13 27  4  0
 14 20  4  0
 15 22  4  0
 16 18  4  0
 16 25  2  0
 16 28  4  0
 21 28  4  0
 24 27  1  0
M  END
$$$$

 Created by Python create_sdf_string function

 28 31  0  0  0  0  0  0  0  0999 V2000
   -1.0054  -13.0622   19.1198 C   0  0  0  0  0  0  0  0  0  0  0  0
    3.1478   -8.5360   28.5161 C   0  0  0  0  0  0  0  0  0  0  0  0
    0.5798   -7.1906   27.9330 C   0  0  0  0  0  0  0  0  0  0  0  0
    0.3978   -5.1561   26.6955 C   0  0  0  0  0  0  0  0  0  0  0  0
    2.3063  -10.0533   30.0125 C   0  0  0  0  0  0  0  0  0  0  0  0
    1.8591   -6.8254   27.4685 N   0  0  0  0  0  0  0  0  0  0  0  0
   -0.2167  -12.1055   18.5568 C   0  0  0  0  0  0  0  0  0  0  0  0
   -2.0661  -10.6994   18.1916 C   0  0  0  0  0  0  0  0  0  0  0  0
    5.2703   -7.5691   27.1123 C   0  0  0  0  0  0  0  0  0  0  0  0
    1.6204   -9.9887   17.2935 C   0  0  0  0  0  0  0  0  0  0  0  0
    1.8931   -7.9265   16.2047 C   0  0  0  0  0  0  0  0  0  0  0  0
    2.4396   -9.0801   16.7132 C   0  0  0  0  0  0  0  0  0  0  0  0
   -0.2575   -8.6234   16.8582 C   0  0  0  0  0  0  0  0  0  0  0  0
    4.0614   -7.0367   27.0106 N   0  0  0  0  0  0  0  0  0  0  0  0
   -2.9133  -11.6279   18.7578 C   0  0  0  0  0  0  0  0  0  0  0  0
    4.5688  -10.1291   29.5758 C   0  0  0  0  0  0  0  0  0  0  0  0
    2.1008   -9.0410   29.1852 N   0  0  0  0  0  0  0  0  0  0  0  0
    3.4829  -10.5697   30.2091 N   0  0  0  0  0  0  0  0  0  0  0  0
   -0.3363   -6.1172   27.5628 C   0  0  0  0  0  0  0  0  0  0  0  0
    3.0331   -7.4400   27.6362 C   0  0  0  0  0  0  0  0  0  0  0  0
    5.4553   -8.5933   27.9644 C   0  0  0  0  0  0  0  0  0  0  0  0
   -2.3870  -12.8440   19.2512 C   0  0  0  0  0  0  0  0  0  0  0  0
    0.5331   -7.6964   16.2751 C   0  0  0  0  0  0  0  0  0  0  0  0
   -0.6740  -10.8737   18.0482 C   0  0  0  0  0  0  0  0  0  0  0  0
    5.6751  -10.5870   29.7637 O   0  0  0  0  0  0  0  0  0  0  0  0
    1.7612   -5.6483   26.7172 C   0  0  0  0  0  0  0  0  0  0  0  0
    0.2221   -9.8326   17.4055 C   0  0  0  0  0  0  0  0  0  0  0  0
    4.3850   -9.0730   28.6745 C   0  0  0  0  0  0  0  0  0  0  0  0
  1  7  4  0
  1 22  4  0
  2 17  4  0
  2 20  4  0
  2 28  4  0
  3  6  1  0
  3 19  1  0
  4 19  1  0
  4 26  1  0
  5 17  4  0
  5 18  4  0
  6 20  1  0
  6 26  1  0
  7 24  4  0
  8 15  4  0
  8 24  4  0
  9 14  4  0
  9 21  4  0
 10 12  4  0
 10 27  4  0
 11 12  4  0
 11 23  4  0
 13 23  4  0
 13 27  4  0
 14 20  4  0
 15 22  4  0
 16 18  4  0
 16 25  2  0
 16 28  4  0
 21 28  4  0
 24 27  1  0
M  END
$$$$

 Created by Python create_sdf_string function

 28 31  0  0  0  0  0  0  0  0999 V2000
   -1.0054  -13.0622   19.1198 C   0  0  0  0  0  0  0  0  0  0  0  0
    3.1478   -8.5360   28.5161 C   0  0  0  0  0  0  0  0  0  0  0  0
    0.5798   -7.1906   27.9330 C   0  0  0  0  0  0  0  0  0  0  0  0
    0.3978   -5.1561   26.6955 C   0  0  0  0  0  0  0  0  0  0  0  0
    2.3063  -10.0533   30.0125 C   0  0  0  0  0  0  0  0  0  0  0  0
    1.8591   -6.8254   27.4685 N   0  0  0  0  0  0  0  0  0  0  0  0
   -0.2167  -12.1055   18.5568 C   0  0  0  0  0  0  0  0  0  0  0  0
   -2.0661  -10.6994   18.1916 C   0  0  0  0  0  0  0  0  0  0  0  0
    5.2703   -7.5691   27.1123 C   0  0  0  0  0  0  0  0  0  0  0  0
    1.6204   -9.9887   17.2935 C   0  0  0  0  0  0  0  0  0  0  0  0
    1.8931   -7.9265   16.2047 C   0  0  0  0  0  0  0  0  0  0  0  0
    2.4396   -9.0801   16.7132 C   0  0  0  0  0  0  0  0  0  0  0  0
   -0.2575   -8.6234   16.8582 C   0  0  0  0  0  0  0  0  0  0  0  0
    4.0614   -7.0367   27.0106 N   0  0  0  0  0  0  0  0  0  0  0  0
   -2.9133  -11.6279   18.7578 C   0  0  0  0  0  0  0  0  0  0  0  0
    4.5688  -10.1291   29.5758 C   0  0  0  0  0  0  0  0  0  0  0  0
    2.1008   -9.0410   29.1852 N   0  0  0  0  0  0  0  0  0  0  0  0
    3.4829  -10.5697   30.2091 N   0  0  0  0  0  0  0  0  0  0  0  0
   -0.3363   -6.1172   27.5628 C   0  0  0  0  0  0  0  0  0  0  0  0
    3.0331   -7.4400   27.6362 C   0  0  0  0  0  0  0  0  0  0  0  0
    5.4553   -8.5933   27.9644 C   0  0  0  0  0  0  0  0  0  0  0  0
   -2.3870  -12.8440   19.2512 C   0  0  0  0  0  0  0  0  0  0  0  0
    0.5331   -7.6964   16.2751 C   0  0  0  0  0  0  0  0  0  0  0  0
   -0.6740  -10.8737   18.0482 C   0  0  0  0  0  0  0  0  0  0  0  0
    5.6751  -10.5870   29.7637 O   0  0  0  0  0  0  0  0  0  0  0  0
    1.7612   -5.6483   26.7172 C   0  0  0  0  0  0  0  0  0  0  0  0
    0.2221   -9.8326   17.4055 C   0  0  0  0  0  0  0  0  0  0  0  0
    4.3850   -9.0730   28.6745 C   0  0  0  0  0  0  0  0  0  0  0  0
  1  7  4  0
  1 22  4  0
  2 17  4  0
  2 20  4  0
  2 28  4  0
  3  6  1  0
  3 19  1  0
  4 19  1  0
  4 26  1  0
  5 17  4  0
  5 18  4  0
  6 20  1  0
  6 26  1  0
  7 24  4  0
  8 15  4  0
  8 24  4  0
  9 14  4  0
  9 21  4  0
 10 12  4  0
 10 27  4  0
 11 12  4  0
 11 23  4  0
 13 23  4  0
 13 27  4  0
 14 20  4  0
 15 22  4  0
 16 18  4  0
 16 25  2  0
 16 28  4  0
 21 28  4  0
 24 27  1  0
M  END
$$$$

 Created by Python create_sdf_string function

 28 31  0  0  0  0  0  0  0  0999 V2000
   -1.0054  -13.0622   19.1198 C   0  0  0  0  0  0  0  0  0  0  0  0
    3.1478   -8.5360   28.5161 C   0  0  0  0  0  0  0  0  0  0  0  0
    0.5798   -7.1906   27.9330 C   0  0  0  0  0  0  0  0  0  0  0  0
    0.3978   -5.1561   26.6955 C   0  0  0  0  0  0  0  0  0  0  0  0
    2.3063  -10.0533   30.0125 C   0  0  0  0  0  0  0  0  0  0  0  0
    1.8591   -6.8254   27.4685 N   0  0  0  0  0  0  0  0  0  0  0  0
   -0.2167  -12.1055   18.5568 C   0  0  0  0  0  0  0  0  0  0  0  0
   -2.0661  -10.6994   18.1916 C   0  0  0  0  0  0  0  0  0  0  0  0
    5.2703   -7.5691   27.1123 C   0  0  0  0  0  0  0  0  0  0  0  0
    1.6204   -9.9887   17.2935 C   0  0  0  0  0  0  0  0  0  0  0  0
    1.8931   -7.9265   16.2047 C   0  0  0  0  0  0  0  0  0  0  0  0
    2.4396   -9.0801   16.7132 C   0  0  0  0  0  0  0  0  0  0  0  0
   -0.2575   -8.6234   16.8582 C   0  0  0  0  0  0  0  0  0  0  0  0
    4.0614   -7.0367   27.0106 N   0  0  0  0  0  0  0  0  0  0  0  0
   -2.9133  -11.6279   18.7578 C   0  0  0  0  0  0  0  0  0  0  0  0
    4.5688  -10.1291   29.5758 C   0  0  0  0  0  0  0  0  0  0  0  0
    2.1008   -9.0410   29.1852 N   0  0  0  0  0  0  0  0  0  0  0  0
    3.4829  -10.5697   30.2091 N   0  0  0  0  0  0  0  0  0  0  0  0
   -0.3363   -6.1172   27.5628 C   0  0  0  0  0  0  0  0  0  0  0  0
    3.0331   -7.4400   27.6362 C   0  0  0  0  0  0  0  0  0  0  0  0
    5.4553   -8.5933   27.9644 C   0  0  0  0  0  0  0  0  0  0  0  0
   -2.3870  -12.8440   19.2512 C   0  0  0  0  0  0  0  0  0  0  0  0
    0.5331   -7.6964   16.2751 C   0  0  0  0  0  0  0  0  0  0  0  0
   -0.6740  -10.8737   18.0482 C   0  0  0  0  0  0  0  0  0  0  0  0
    5.6751  -10.5870   29.7637 O   0  0  0  0  0  0  0  0  0  0  0  0
    1.7612   -5.6483   26.7172 C   0  0  0  0  0  0  0  0  0  0  0  0
    0.2221   -9.8326   17.4055 C   0  0  0  0  0  0  0  0  0  0  0  0
    4.3850   -9.0730   28.6745 C   0  0  0  0  0  0  0  0  0  0  0  0
  1  7  4  0
  1 22  4  0
  2 17  4  0
  2 20  4  0
  2 28  4  0
  3  6  1  0
  3 19  1  0
  4 19  1  0
  4 26  1  0
  5 17  4  0
  5 18  4  0
  6 20  1  0
  6 26  1  0
  7 24  4  0
  8 15  4  0
  8 24  4  0
  9 14  4  0
  9 21  4  0
 10 12  4  0
 10 27  4  0
 11 12  4  0
 11 23  4  0
 13 23  4  0
 13 27  4  0
 14 20  4  0
 15 22  4  0
 16 18  4  0
 16 25  2  0
 16 28  4  0
 21 28  4  0
 24 27  1  0
M  END
$$$$

 Created by Python create_sdf_string function

 28 31  0  0  0  0  0  0  0  0999 V2000
   -1.0054  -13.0622   19.1198 C   0  0  0  0  0  0  0  0  0  0  0  0
    3.1478   -8.5360   28.5161 C   0  0  0  0  0  0  0  0  0  0  0  0
    0.5798   -7.1906   27.9330 C   0  0  0  0  0  0  0  0  0  0  0  0
    0.3978   -5.1561   26.6955 C   0  0  0  0  0  0  0  0  0  0  0  0
    2.3063  -10.0533   30.0125 C   0  0  0  0  0  0  0  0  0  0  0  0
    1.8591   -6.8254   27.4685 N   0  0  0  0  0  0  0  0  0  0  0  0
   -0.2167  -12.1055   18.5568 C   0  0  0  0  0  0  0  0  0  0  0  0
   -2.0661  -10.6994   18.1916 C   0  0  0  0  0  0  0  0  0  0  0  0
    5.2703   -7.5691   27.1123 C   0  0  0  0  0  0  0  0  0  0  0  0
    1.6204   -9.9887   17.2935 C   0  0  0  0  0  0  0  0  0  0  0  0
    1.8931   -7.9265   16.2047 C   0  0  0  0  0  0  0  0  0  0  0  0
    2.4396   -9.0801   16.7132 C   0  0  0  0  0  0  0  0  0  0  0  0
   -0.2575   -8.6234   16.8582 C   0  0  0  0  0  0  0  0  0  0  0  0
    4.0614   -7.0367   27.0106 N   0  0  0  0  0  0  0  0  0  0  0  0
   -2.9133  -11.6279   18.7578 C   0  0  0  0  0  0  0  0  0  0  0  0
    4.5688  -10.1291   29.5758 C   0  0  0  0  0  0  0  0  0  0  0  0
    2.1008   -9.0410   29.1852 N   0  0  0  0  0  0  0  0  0  0  0  0
    3.4829  -10.5697   30.2091 N   0  0  0  0  0  0  0  0  0  0  0  0
   -0.3363   -6.1172   27.5628 C   0  0  0  0  0  0  0  0  0  0  0  0
    3.0331   -7.4400   27.6362 C   0  0  0  0  0  0  0  0  0  0  0  0
    5.4553   -8.5933   27.9644 C   0  0  0  0  0  0  0  0  0  0  0  0
   -2.3870  -12.8440   19.2512 C   0  0  0  0  0  0  0  0  0  0  0  0
    0.5331   -7.6964   16.2751 C   0  0  0  0  0  0  0  0  0  0  0  0
   -0.6740  -10.8737   18.0482 C   0  0  0  0  0  0  0  0  0  0  0  0
    5.6751  -10.5870   29.7637 O   0  0  0  0  0  0  0  0  0  0  0  0
    1.7612   -5.6483   26.7172 C   0  0  0  0  0  0  0  0  0  0  0  0
    0.2221   -9.8326   17.4055 C   0  0  0  0  0  0  0  0  0  0  0  0
    4.3850   -9.0730   28.6745 C   0  0  0  0  0  0  0  0  0  0  0  0
  1  7  4  0
  1 22  4  0
  2 17  4  0
  2 20  4  0
  2 28  4  0
  3  6  1  0
  3 19  1  0
  4 19  1  0
  4 26  1  0
  5 17  4  0
  5 18  4  0
  6 20  1  0
  6 26  1  0
  7 24  4  0
  8 15  4  0
  8 24  4  0
  9 14  4  0
  9 21  4  0
 10 12  4  0
 10 27  4  0
 11 12  4  0
 11 23  4  0
 13 23  4  0
 13 27  4  0
 14 20  4  0
 15 22  4  0
 16 18  4  0
 16 25  2  0
 16 28  4  0
 21 28  4  0
 24 27  1  0
M  END
$$$$

 Created by Python create_sdf_string function

 28 31  0  0  0  0  0  0  0  0999 V2000
   -1.0054  -13.0622   19.1198 C   0  0  0  0  0  0  0  0  0  0  0  0
    3.1478   -8.5360   28.5161 C   0  0  0  0  0  0  0  0  0  0  0  0
    0.5798   -7.1906   27.9330 C   0  0  0  0  0  0  0  0  0  0  0  0
    0.3978   -5.1561   26.6955 C   0  0  0  0  0  0  0  0  0  0  0  0
    2.3063  -10.0533   30.0125 C   0  0  0  0  0  0  0  0  0  0  0  0
    1.8591   -6.8254   27.4685 N   0  0  0  0  0  0  0  0  0  0  0  0
   -0.2167  -12.1055   18.5568 C   0  0  0  0  0  0  0  0  0  0  0  0
   -2.0661  -10.6994   18.1916 C   0  0  0  0  0  0  0  0  0  0  0  0
    5.2703   -7.5691   27.1123 C   0  0  0  0  0  0  0  0  0  0  0  0
    1.6204   -9.9887   17.2935 C   0  0  0  0  0  0  0  0  0  0  0  0
    1.8931   -7.9265   16.2047 C   0  0  0  0  0  0  0  0  0  0  0  0
    2.4396   -9.0801   16.7132 C   0  0  0  0  0  0  0  0  0  0  0  0
   -0.2575   -8.6234   16.8582 C   0  0  0  0  0  0  0  0  0  0  0  0
    4.0614   -7.0367   27.0106 N   0  0  0  0  0  0  0  0  0  0  0  0
   -2.9133  -11.6279   18.7578 C   0  0  0  0  0  0  0  0  0  0  0  0
    4.5688  -10.1291   29.5758 C   0  0  0  0  0  0  0  0  0  0  0  0
    2.1008   -9.0410   29.1852 N   0  0  0  0  0  0  0  0  0  0  0  0
    3.4829  -10.5697   30.2091 N   0  0  0  0  0  0  0  0  0  0  0  0
   -0.3363   -6.1172   27.5628 C   0  0  0  0  0  0  0  0  0  0  0  0
    3.0331   -7.4400   27.6362 C   0  0  0  0  0  0  0  0  0  0  0  0
    5.4553   -8.5933   27.9644 C   0  0  0  0  0  0  0  0  0  0  0  0
   -2.3870  -12.8440   19.2512 C   0  0  0  0  0  0  0  0  0  0  0  0
    0.5331   -7.6964   16.2751 C   0  0  0  0  0  0  0  0  0  0  0  0
   -0.6740  -10.8737   18.0482 C   0  0  0  0  0  0  0  0  0  0  0  0
    5.6751  -10.5870   29.7637 O   0  0  0  0  0  0  0  0  0  0  0  0
    1.7612   -5.6483   26.7172 C   0  0  0  0  0  0  0  0  0  0  0  0
    0.2221   -9.8326   17.4055 C   0  0  0  0  0  0  0  0  0  0  0  0
    4.3850   -9.0730   28.6745 C   0  0  0  0  0  0  0  0  0  0  0  0
  1  7  4  0
  1 22  4  0
  2 17  4  0
  2 20  4  0
  2 28  4  0
  3  6  1  0
  3 19  1  0
  4 19  1  0
  4 26  1  0
  5 17  4  0
  5 18  4  0
  6 20  1  0
  6 26  1  0
  7 24  4  0
  8 15  4  0
  8 24  4  0
  9 14  4  0
  9 21  4  0
 10 12  4  0
 10 27  4  0
 11 12  4  0
 11 23  4  0
 13 23  4  0
 13 27  4  0
 14 20  4  0
 15 22  4  0
 16 18  4  0
 16 25  2  0
 16 28  4  0
 21 28  4  0
 24 27  1  0
M  END
$$$$

 Created by Python create_sdf_string function

 28 31  0  0  0  0  0  0  0  0999 V2000
   -1.0054  -13.0622   19.1198 C   0  0  0  0  0  0  0  0  0  0  0  0
    3.1478   -8.5360   28.5161 C   0  0  0  0  0  0  0  0  0  0  0  0
    0.5798   -7.1906   27.9330 C   0  0  0  0  0  0  0  0  0  0  0  0
    0.3978   -5.1561   26.6955 C   0  0  0  0  0  0  0  0  0  0  0  0
    2.3063  -10.0533   30.0125 C   0  0  0  0  0  0  0  0  0  0  0  0
    1.8591   -6.8254   27.4685 N   0  0  0  0  0  0  0  0  0  0  0  0
   -0.2167  -12.1055   18.5568 C   0  0  0  0  0  0  0  0  0  0  0  0
   -2.0661  -10.6994   18.1916 C   0  0  0  0  0  0  0  0  0  0  0  0
    5.2703   -7.5691   27.1123 C   0  0  0  0  0  0  0  0  0  0  0  0
    1.6204   -9.9887   17.2935 C   0  0  0  0  0  0  0  0  0  0  0  0
    1.8931   -7.9265   16.2047 C   0  0  0  0  0  0  0  0  0  0  0  0
    2.4396   -9.0801   16.7132 C   0  0  0  0  0  0  0  0  0  0  0  0
   -0.2575   -8.6234   16.8582 C   0  0  0  0  0  0  0  0  0  0  0  0
    4.0614   -7.0367   27.0106 N   0  0  0  0  0  0  0  0  0  0  0  0
   -2.9133  -11.6279   18.7578 C   0  0  0  0  0  0  0  0  0  0  0  0
    4.5688  -10.1291   29.5758 C   0  0  0  0  0  0  0  0  0  0  0  0
    2.1008   -9.0410   29.1852 N   0  0  0  0  0  0  0  0  0  0  0  0
    3.4829  -10.5697   30.2091 N   0  0  0  0  0  0  0  0  0  0  0  0
   -0.3363   -6.1172   27.5628 C   0  0  0  0  0  0  0  0  0  0  0  0
    3.0331   -7.4400   27.6362 C   0  0  0  0  0  0  0  0  0  0  0  0
    5.4553   -8.5933   27.9644 C   0  0  0  0  0  0  0  0  0  0  0  0
   -2.3870  -12.8440   19.2512 C   0  0  0  0  0  0  0  0  0  0  0  0
    0.5331   -7.6964   16.2751 C   0  0  0  0  0  0  0  0  0  0  0  0
   -0.6740  -10.8737   18.0482 C   0  0  0  0  0  0  0  0  0  0  0  0
    5.6751  -10.5870   29.7637 O   0  0  0  0  0  0  0  0  0  0  0  0
    1.7612   -5.6483   26.7172 C   0  0  0  0  0  0  0  0  0  0  0  0
    0.2221   -9.8326   17.4055 C   0  0  0  0  0  0  0  0  0  0  0  0
    4.3850   -9.0730   28.6745 C   0  0  0  0  0  0  0  0  0  0  0  0
  1  7  4  0
  1 22  4  0
  2 17  4  0
  2 20  4  0
  2 28  4  0
  3  6  1  0
  3 19  1  0
  4 19  1  0
  4 26  1  0
  5 17  4  0
  5 18  4  0
  6 20  1  0
  6 26  1  0
  7 24  4  0
  8 15  4  0
  8 24  4  0
  9 14  4  0
  9 21  4  0
 10 12  4  0
 10 27  4  0
 11 12  4  0
 11 23  4  0
 13 23  4  0
 13 27  4  0
 14 20  4  0
 15 22  4  0
 16 18  4  0
 16 25  2  0
 16 28  4  0
 21 28  4  0
 24 27  1  0
M  END
$$$$

 Created by Python create_sdf_string function

 28 31  0  0  0  0  0  0  0  0999 V2000
   -1.0054  -13.0622   19.1198 C   0  0  0  0  0  0  0  0  0  0  0  0
    3.1478   -8.5360   28.5161 C   0  0  0  0  0  0  0  0  0  0  0  0
    0.5798   -7.1906   27.9330 C   0  0  0  0  0  0  0  0  0  0  0  0
    0.3978   -5.1561   26.6955 C   0  0  0  0  0  0  0  0  0  0  0  0
    2.3063  -10.0533   30.0125 C   0  0  0  0  0  0  0  0  0  0  0  0
    1.8591   -6.8254   27.4685 N   0  0  0  0  0  0  0  0  0  0  0  0
   -0.2167  -12.1055   18.5568 C   0  0  0  0  0  0  0  0  0  0  0  0
   -2.0661  -10.6994   18.1916 C   0  0  0  0  0  0  0  0  0  0  0  0
    5.2703   -7.5691   27.1123 C   0  0  0  0  0  0  0  0  0  0  0  0
    1.6204   -9.9887   17.2935 C   0  0  0  0  0  0  0  0  0  0  0  0
    1.8931   -7.9265   16.2047 C   0  0  0  0  0  0  0  0  0  0  0  0
    2.4396   -9.0801   16.7132 C   0  0  0  0  0  0  0  0  0  0  0  0
   -0.2575   -8.6234   16.8582 C   0  0  0  0  0  0  0  0  0  0  0  0
    4.0614   -7.0367   27.0106 N   0  0  0  0  0  0  0  0  0  0  0  0
   -2.9133  -11.6279   18.7578 C   0  0  0  0  0  0  0  0  0  0  0  0
    4.5688  -10.1291   29.5758 C   0  0  0  0  0  0  0  0  0  0  0  0
    2.1008   -9.0410   29.1852 N   0  0  0  0  0  0  0  0  0  0  0  0
    3.4829  -10.5697   30.2091 N   0  0  0  0  0  0  0  0  0  0  0  0
   -0.3363   -6.1172   27.5628 C   0  0  0  0  0  0  0  0  0  0  0  0
    3.0331   -7.4400   27.6362 C   0  0  0  0  0  0  0  0  0  0  0  0
    5.4553   -8.5933   27.9644 C   0  0  0  0  0  0  0  0  0  0  0  0
   -2.3870  -12.8440   19.2512 C   0  0  0  0  0  0  0  0  0  0  0  0
    0.5331   -7.6964   16.2751 C   0  0  0  0  0  0  0  0  0  0  0  0
   -0.6740  -10.8737   18.0482 C   0  0  0  0  0  0  0  0  0  0  0  0
    5.6751  -10.5870   29.7637 O   0  0  0  0  0  0  0  0  0  0  0  0
    1.7612   -5.6483   26.7172 C   0  0  0  0  0  0  0  0  0  0  0  0
    0.2221   -9.8326   17.4055 C   0  0  0  0  0  0  0  0  0  0  0  0
    4.3850   -9.0730   28.6745 C   0  0  0  0  0  0  0  0  0  0  0  0
  1  7  4  0
  1 22  4  0
  2 17  4  0
  2 20  4  0
  2 28  4  0
  3  6  1  0
  3 19  1  0
  4 19  1  0
  4 26  1  0
  5 17  4  0
  5 18  4  0
  6 20  1  0
  6 26  1  0
  7 24  4  0
  8 15  4  0
  8 24  4  0
  9 14  4  0
  9 21  4  0
 10 12  4  0
 10 27  4  0
 11 12  4  0
 11 23  4  0
 13 23  4  0
 13 27  4  0
 14 20  4  0
 15 22  4  0
 16 18  4  0
 16 25  2  0
 16 28  4  0
 21 28  4  0
 24 27  1  0
M  END
$$$$

 Created by Python create_sdf_string function

 28 31  0  0  0  0  0  0  0  0999 V2000
   -1.0054  -13.0622   19.1198 C   0  0  0  0  0  0  0  0  0  0  0  0
    3.1478   -8.5360   28.5161 C   0  0  0  0  0  0  0  0  0  0  0  0
    0.5798   -7.1906   27.9330 C   0  0  0  0  0  0  0  0  0  0  0  0
    0.3978   -5.1561   26.6955 C   0  0  0  0  0  0  0  0  0  0  0  0
    2.3063  -10.0533   30.0125 C   0  0  0  0  0  0  0  0  0  0  0  0
    1.8591   -6.8254   27.4685 N   0  0  0  0  0  0  0  0  0  0  0  0
   -0.2167  -12.1055   18.5568 C   0  0  0  0  0  0  0  0  0  0  0  0
   -2.0661  -10.6994   18.1916 C   0  0  0  0  0  0  0  0  0  0  0  0
    5.2703   -7.5691   27.1123 C   0  0  0  0  0  0  0  0  0  0  0  0
    1.6204   -9.9887   17.2935 C   0  0  0  0  0  0  0  0  0  0  0  0
    1.8931   -7.9265   16.2047 C   0  0  0  0  0  0  0  0  0  0  0  0
    2.4396   -9.0801   16.7132 C   0  0  0  0  0  0  0  0  0  0  0  0
   -0.2575   -8.6234   16.8582 C   0  0  0  0  0  0  0  0  0  0  0  0
    4.0614   -7.0367   27.0106 N   0  0  0  0  0  0  0  0  0  0  0  0
   -2.9133  -11.6279   18.7578 C   0  0  0  0  0  0  0  0  0  0  0  0
    4.5688  -10.1291   29.5758 C   0  0  0  0  0  0  0  0  0  0  0  0
    2.1008   -9.0410   29.1852 N   0  0  0  0  0  0  0  0  0  0  0  0
    3.4829  -10.5697   30.2091 N   0  0  0  0  0  0  0  0  0  0  0  0
   -0.3363   -6.1172   27.5628 C   0  0  0  0  0  0  0  0  0  0  0  0
    3.0331   -7.4400   27.6362 C   0  0  0  0  0  0  0  0  0  0  0  0
    5.4553   -8.5933   27.9644 C   0  0  0  0  0  0  0  0  0  0  0  0
   -2.3870  -12.8440   19.2512 C   0  0  0  0  0  0  0  0  0  0  0  0
    0.5331   -7.6964   16.2751 C   0  0  0  0  0  0  0  0  0  0  0  0
   -0.6740  -10.8737   18.0482 C   0  0  0  0  0  0  0  0  0  0  0  0
    5.6751  -10.5870   29.7637 O   0  0  0  0  0  0  0  0  0  0  0  0
    1.7612   -5.6483   26.7172 C   0  0  0  0  0  0  0  0  0  0  0  0
    0.2221   -9.8326   17.4055 C   0  0  0  0  0  0  0  0  0  0  0  0
    4.3850   -9.0730   28.6745 C   0  0  0  0  0  0  0  0  0  0  0  0
  1  7  4  0
  1 22  4  0
  2 17  4  0
  2 20  4  0
  2 28  4  0
  3  6  1  0
  3 19  1  0
  4 19  1  0
  4 26  1  0
  5 17  4  0
  5 18  4  0
  6 20  1  0
  6 26  1  0
  7 24  4  0
  8 15  4  0
  8 24  4  0
  9 14  4  0
  9 21  4  0
 10 12  4  0
 10 27  4  0
 11 12  4  0
 11 23  4  0
 13 23  4  0
 13 27  4  0
 14 20  4  0
 15 22  4  0
 16 18  4  0
 16 25  2  0
 16 28  4  0
 21 28  4  0
 24 27  1  0
M  END
$$$$

 Created by Python create_sdf_string function

 28 31  0  0  0  0  0  0  0  0999 V2000
   -1.0054  -13.0622   19.1198 C   0  0  0  0  0  0  0  0  0  0  0  0
    3.1478   -8.5360   28.5161 C   0  0  0  0  0  0  0  0  0  0  0  0
    0.5798   -7.1906   27.9330 C   0  0  0  0  0  0  0  0  0  0  0  0
    0.3978   -5.1561   26.6955 C   0  0  0  0  0  0  0  0  0  0  0  0
    2.3063  -10.0533   30.0125 C   0  0  0  0  0  0  0  0  0  0  0  0
    1.8591   -6.8254   27.4685 N   0  0  0  0  0  0  0  0  0  0  0  0
   -0.2167  -12.1055   18.5568 C   0  0  0  0  0  0  0  0  0  0  0  0
   -2.0661  -10.6994   18.1916 C   0  0  0  0  0  0  0  0  0  0  0  0
    5.2703   -7.5691   27.1123 C   0  0  0  0  0  0  0  0  0  0  0  0
    1.6204   -9.9887   17.2935 C   0  0  0  0  0  0  0  0  0  0  0  0
    1.8931   -7.9265   16.2047 C   0  0  0  0  0  0  0  0  0  0  0  0
    2.4396   -9.0801   16.7132 C   0  0  0  0  0  0  0  0  0  0  0  0
   -0.2575   -8.6234   16.8582 C   0  0  0  0  0  0  0  0  0  0  0  0
    4.0614   -7.0367   27.0106 N   0  0  0  0  0  0  0  0  0  0  0  0
   -2.9133  -11.6279   18.7578 C   0  0  0  0  0  0  0  0  0  0  0  0
    4.5688  -10.1291   29.5758 C   0  0  0  0  0  0  0  0  0  0  0  0
    2.1008   -9.0410   29.1852 N   0  0  0  0  0  0  0  0  0  0  0  0
    3.4829  -10.5697   30.2091 N   0  0  0  0  0  0  0  0  0  0  0  0
   -0.3363   -6.1172   27.5628 C   0  0  0  0  0  0  0  0  0  0  0  0
    3.0331   -7.4400   27.6362 C   0  0  0  0  0  0  0  0  0  0  0  0
    5.4553   -8.5933   27.9644 C   0  0  0  0  0  0  0  0  0  0  0  0
   -2.3870  -12.8440   19.2512 C   0  0  0  0  0  0  0  0  0  0  0  0
    0.5331   -7.6964   16.2751 C   0  0  0  0  0  0  0  0  0  0  0  0
   -0.6740  -10.8737   18.0482 C   0  0  0  0  0  0  0  0  0  0  0  0
    5.6751  -10.5870   29.7637 O   0  0  0  0  0  0  0  0  0  0  0  0
    1.7612   -5.6483   26.7172 C   0  0  0  0  0  0  0  0  0  0  0  0
    0.2221   -9.8326   17.4055 C   0  0  0  0  0  0  0  0  0  0  0  0
    4.3850   -9.0730   28.6745 C   0  0  0  0  0  0  0  0  0  0  0  0
  1  7  4  0
  1 22  4  0
  2 17  4  0
  2 20  4  0
  2 28  4  0
  3  6  1  0
  3 19  1  0
  4 19  1  0
  4 26  1  0
  5 17  4  0
  5 18  4  0
  6 20  1  0
  6 26  1  0
  7 24  4  0
  8 15  4  0
  8 24  4  0
  9 14  4  0
  9 21  4  0
 10 12  4  0
 10 27  4  0
 11 12  4  0
 11 23  4  0
 13 23  4  0
 13 27  4  0
 14 20  4  0
 15 22  4  0
 16 18  4  0
 16 25  2  0
 16 28  4  0
 21 28  4  0
 24 27  1  0
M  END
$$$$

 Created by Python create_sdf_string function

 28 31  0  0  0  0  0  0  0  0999 V2000
   -1.0054  -13.0622   19.1198 C   0  0  0  0  0  0  0  0  0  0  0  0
    3.1478   -8.5360   28.5161 C   0  0  0  0  0  0  0  0  0  0  0  0
    0.5798   -7.1906   27.9330 C   0  0  0  0  0  0  0  0  0  0  0  0
    0.3978   -5.1561   26.6955 C   0  0  0  0  0  0  0  0  0  0  0  0
    2.3063  -10.0533   30.0125 C   0  0  0  0  0  0  0  0  0  0  0  0
    1.8591   -6.8254   27.4685 N   0  0  0  0  0  0  0  0  0  0  0  0
   -0.2167  -12.1055   18.5568 C   0  0  0  0  0  0  0  0  0  0  0  0
   -2.0661  -10.6994   18.1916 C   0  0  0  0  0  0  0  0  0  0  0  0
    5.2703   -7.5691   27.1123 C   0  0  0  0  0  0  0  0  0  0  0  0
    1.6204   -9.9887   17.2935 C   0  0  0  0  0  0  0  0  0  0  0  0
    1.8931   -7.9265   16.2047 C   0  0  0  0  0  0  0  0  0  0  0  0
    2.4396   -9.0801   16.7132 C   0  0  0  0  0  0  0  0  0  0  0  0
   -0.2575   -8.6234   16.8582 C   0  0  0  0  0  0  0  0  0  0  0  0
    4.0614   -7.0367   27.0106 N   0  0  0  0  0  0  0  0  0  0  0  0
   -2.9133  -11.6279   18.7578 C   0  0  0  0  0  0  0  0  0  0  0  0
    4.5688  -10.1291   29.5758 C   0  0  0  0  0  0  0  0  0  0  0  0
    2.1008   -9.0410   29.1852 N   0  0  0  0  0  0  0  0  0  0  0  0
    3.4829  -10.5697   30.2091 N   0  0  0  0  0  0  0  0  0  0  0  0
   -0.3363   -6.1172   27.5628 C   0  0  0  0  0  0  0  0  0  0  0  0
    3.0331   -7.4400   27.6362 C   0  0  0  0  0  0  0  0  0  0  0  0
    5.4553   -8.5933   27.9644 C   0  0  0  0  0  0  0  0  0  0  0  0
   -2.3870  -12.8440   19.2512 C   0  0  0  0  0  0  0  0  0  0  0  0
    0.5331   -7.6964   16.2751 C   0  0  0  0  0  0  0  0  0  0  0  0
   -0.6740  -10.8737   18.0482 C   0  0  0  0  0  0  0  0  0  0  0  0
    5.6751  -10.5870   29.7637 O   0  0  0  0  0  0  0  0  0  0  0  0
    1.7612   -5.6483   26.7172 C   0  0  0  0  0  0  0  0  0  0  0  0
    0.2221   -9.8326   17.4055 C   0  0  0  0  0  0  0  0  0  0  0  0
    4.3850   -9.0730   28.6745 C   0  0  0  0  0  0  0  0  0  0  0  0
  1  7  4  0
  1 22  4  0
  2 17  4  0
  2 20  4  0
  2 28  4  0
  3  6  1  0
  3 19  1  0
  4 19  1  0
  4 26  1  0
  5 17  4  0
  5 18  4  0
  6 20  1  0
  6 26  1  0
  7 24  4  0
  8 15  4  0
  8 24  4  0
  9 14  4  0
  9 21  4  0
 10 12  4  0
 10 27  4  0
 11 12  4  0
 11 23  4  0
 13 23  4  0
 13 27  4  0
 14 20  4  0
 15 22  4  0
 16 18  4  0
 16 25  2  0
 16 28  4  0
 21 28  4  0
 24 27  1  0
M  END
$$$$

 Created by Python create_sdf_string function

 28 31  0  0  0  0  0  0  0  0999 V2000
   -1.0054  -13.0622   19.1198 C   0  0  0  0  0  0  0  0  0  0  0  0
    3.1478   -8.5360   28.5161 C   0  0  0  0  0  0  0  0  0  0  0  0
    0.5798   -7.1906   27.9330 C   0  0  0  0  0  0  0  0  0  0  0  0
    0.3978   -5.1561   26.6955 C   0  0  0  0  0  0  0  0  0  0  0  0
    2.3063  -10.0533   30.0125 C   0  0  0  0  0  0  0  0  0  0  0  0
    1.8591   -6.8254   27.4685 N   0  0  0  0  0  0  0  0  0  0  0  0
   -0.2167  -12.1055   18.5568 C   0  0  0  0  0  0  0  0  0  0  0  0
   -2.0661  -10.6994   18.1916 C   0  0  0  0  0  0  0  0  0  0  0  0
    5.2703   -7.5691   27.1123 C   0  0  0  0  0  0  0  0  0  0  0  0
    1.6204   -9.9887   17.2935 C   0  0  0  0  0  0  0  0  0  0  0  0
    1.8931   -7.9265   16.2047 C   0  0  0  0  0  0  0  0  0  0  0  0
    2.4396   -9.0801   16.7132 C   0  0  0  0  0  0  0  0  0  0  0  0
   -0.2575   -8.6234   16.8582 C   0  0  0  0  0  0  0  0  0  0  0  0
    4.0614   -7.0367   27.0106 N   0  0  0  0  0  0  0  0  0  0  0  0
   -2.9133  -11.6279   18.7578 C   0  0  0  0  0  0  0  0  0  0  0  0
    4.5688  -10.1291   29.5758 C   0  0  0  0  0  0  0  0  0  0  0  0
    2.1008   -9.0410   29.1852 N   0  0  0  0  0  0  0  0  0  0  0  0
    3.4829  -10.5697   30.2091 N   0  0  0  0  0  0  0  0  0  0  0  0
   -0.3363   -6.1172   27.5628 C   0  0  0  0  0  0  0  0  0  0  0  0
    3.0331   -7.4400   27.6362 C   0  0  0  0  0  0  0  0  0  0  0  0
    5.4553   -8.5933   27.9644 C   0  0  0  0  0  0  0  0  0  0  0  0
   -2.3870  -12.8440   19.2512 C   0  0  0  0  0  0  0  0  0  0  0  0
    0.5331   -7.6964   16.2751 C   0  0  0  0  0  0  0  0  0  0  0  0
   -0.6740  -10.8737   18.0482 C   0  0  0  0  0  0  0  0  0  0  0  0
    5.6751  -10.5870   29.7637 O   0  0  0  0  0  0  0  0  0  0  0  0
    1.7612   -5.6483   26.7172 C   0  0  0  0  0  0  0  0  0  0  0  0
    0.2221   -9.8326   17.4055 C   0  0  0  0  0  0  0  0  0  0  0  0
    4.3850   -9.0730   28.6745 C   0  0  0  0  0  0  0  0  0  0  0  0
  1  7  4  0
  1 22  4  0
  2 17  4  0
  2 20  4  0
  2 28  4  0
  3  6  1  0
  3 19  1  0
  4 19  1  0
  4 26  1  0
  5 17  4  0
  5 18  4  0
  6 20  1  0
  6 26  1  0
  7 24  4  0
  8 15  4  0
  8 24  4  0
  9 14  4  0
  9 21  4  0
 10 12  4  0
 10 27  4  0
 11 12  4  0
 11 23  4  0
 13 23  4  0
 13 27  4  0
 14 20  4  0
 15 22  4  0
 16 18  4  0
 16 25  2  0
 16 28  4  0
 21 28  4  0
 24 27  1  0
M  END
$$$$

 Created by Python create_sdf_string function

 28 31  0  0  0  0  0  0  0  0999 V2000
   -1.0054  -13.0622   19.1198 C   0  0  0  0  0  0  0  0  0  0  0  0
    3.1478   -8.5360   28.5161 C   0  0  0  0  0  0  0  0  0  0  0  0
    0.5798   -7.1906   27.9330 C   0  0  0  0  0  0  0  0  0  0  0  0
    0.3978   -5.1561   26.6955 C   0  0  0  0  0  0  0  0  0  0  0  0
    2.3063  -10.0533   30.0125 C   0  0  0  0  0  0  0  0  0  0  0  0
    1.8591   -6.8254   27.4685 N   0  0  0  0  0  0  0  0  0  0  0  0
   -0.2167  -12.1055   18.5568 C   0  0  0  0  0  0  0  0  0  0  0  0
   -2.0661  -10.6994   18.1916 C   0  0  0  0  0  0  0  0  0  0  0  0
    5.2703   -7.5691   27.1123 C   0  0  0  0  0  0  0  0  0  0  0  0
    1.6204   -9.9887   17.2935 C   0  0  0  0  0  0  0  0  0  0  0  0
    1.8931   -7.9265   16.2047 C   0  0  0  0  0  0  0  0  0  0  0  0
    2.4396   -9.0801   16.7132 C   0  0  0  0  0  0  0  0  0  0  0  0
   -0.2575   -8.6234   16.8582 C   0  0  0  0  0  0  0  0  0  0  0  0
    4.0614   -7.0367   27.0106 N   0  0  0  0  0  0  0  0  0  0  0  0
   -2.9133  -11.6279   18.7578 C   0  0  0  0  0  0  0  0  0  0  0  0
    4.5688  -10.1291   29.5758 C   0  0  0  0  0  0  0  0  0  0  0  0
    2.1008   -9.0410   29.1852 N   0  0  0  0  0  0  0  0  0  0  0  0
    3.4829  -10.5697   30.2091 N   0  0  0  0  0  0  0  0  0  0  0  0
   -0.3363   -6.1172   27.5628 C   0  0  0  0  0  0  0  0  0  0  0  0
    3.0331   -7.4400   27.6362 C   0  0  0  0  0  0  0  0  0  0  0  0
    5.4553   -8.5933   27.9644 C   0  0  0  0  0  0  0  0  0  0  0  0
   -2.3870  -12.8440   19.2512 C   0  0  0  0  0  0  0  0  0  0  0  0
    0.5331   -7.6964   16.2751 C   0  0  0  0  0  0  0  0  0  0  0  0
   -0.6740  -10.8737   18.0482 C   0  0  0  0  0  0  0  0  0  0  0  0
    5.6751  -10.5870   29.7637 O   0  0  0  0  0  0  0  0  0  0  0  0
    1.7612   -5.6483   26.7172 C   0  0  0  0  0  0  0  0  0  0  0  0
    0.2221   -9.8326   17.4055 C   0  0  0  0  0  0  0  0  0  0  0  0
    4.3850   -9.0730   28.6745 C   0  0  0  0  0  0  0  0  0  0  0  0
  1  7  4  0
  1 22  4  0
  2 17  4  0
  2 20  4  0
  2 28  4  0
  3  6  1  0
  3 19  1  0
  4 19  1  0
  4 26  1  0
  5 17  4  0
  5 18  4  0
  6 20  1  0
  6 26  1  0
  7 24  4  0
  8 15  4  0
  8 24  4  0
  9 14  4  0
  9 21  4  0
 10 12  4  0
 10 27  4  0
 11 12  4  0
 11 23  4  0
 13 23  4  0
 13 27  4  0
 14 20  4  0
 15 22  4  0
 16 18  4  0
 16 25  2  0
 16 28  4  0
 21 28  4  0
 24 27  1  0
M  END
$$$$

 Created by Python create_sdf_string function

 28 31  0  0  0  0  0  0  0  0999 V2000
   -1.0054  -13.0622   19.1198 C   0  0  0  0  0  0  0  0  0  0  0  0
    3.1478   -8.5360   28.5161 C   0  0  0  0  0  0  0  0  0  0  0  0
    0.5798   -7.1906   27.9330 C   0  0  0  0  0  0  0  0  0  0  0  0
    0.3978   -5.1561   26.6955 C   0  0  0  0  0  0  0  0  0  0  0  0
    2.3063  -10.0533   30.0125 C   0  0  0  0  0  0  0  0  0  0  0  0
    1.8591   -6.8254   27.4685 N   0  0  0  0  0  0  0  0  0  0  0  0
   -0.2167  -12.1055   18.5568 C   0  0  0  0  0  0  0  0  0  0  0  0
   -2.0661  -10.6994   18.1916 C   0  0  0  0  0  0  0  0  0  0  0  0
    5.2703   -7.5691   27.1123 C   0  0  0  0  0  0  0  0  0  0  0  0
    1.6204   -9.9887   17.2935 C   0  0  0  0  0  0  0  0  0  0  0  0
    1.8931   -7.9265   16.2047 C   0  0  0  0  0  0  0  0  0  0  0  0
    2.4396   -9.0801   16.7132 C   0  0  0  0  0  0  0  0  0  0  0  0
   -0.2575   -8.6234   16.8582 C   0  0  0  0  0  0  0  0  0  0  0  0
    4.0614   -7.0367   27.0106 N   0  0  0  0  0  0  0  0  0  0  0  0
   -2.9133  -11.6279   18.7578 C   0  0  0  0  0  0  0  0  0  0  0  0
    4.5688  -10.1291   29.5758 C   0  0  0  0  0  0  0  0  0  0  0  0
    2.1008   -9.0410   29.1852 N   0  0  0  0  0  0  0  0  0  0  0  0
    3.4829  -10.5697   30.2091 N   0  0  0  0  0  0  0  0  0  0  0  0
   -0.3363   -6.1172   27.5628 C   0  0  0  0  0  0  0  0  0  0  0  0
    3.0331   -7.4400   27.6362 C   0  0  0  0  0  0  0  0  0  0  0  0
    5.4553   -8.5933   27.9644 C   0  0  0  0  0  0  0  0  0  0  0  0
   -2.3870  -12.8440   19.2512 C   0  0  0  0  0  0  0  0  0  0  0  0
    0.5331   -7.6964   16.2751 C   0  0  0  0  0  0  0  0  0  0  0  0
   -0.6740  -10.8737   18.0482 C   0  0  0  0  0  0  0  0  0  0  0  0
    5.6751  -10.5870   29.7637 O   0  0  0  0  0  0  0  0  0  0  0  0
    1.7612   -5.6483   26.7172 C   0  0  0  0  0  0  0  0  0  0  0  0
    0.2221   -9.8326   17.4055 C   0  0  0  0  0  0  0  0  0  0  0  0
    4.3850   -9.0730   28.6745 C   0  0  0  0  0  0  0  0  0  0  0  0
  1  7  4  0
  1 22  4  0
  2 17  4  0
  2 20  4  0
  2 28  4  0
  3  6  1  0
  3 19  1  0
  4 19  1  0
  4 26  1  0
  5 17  4  0
  5 18  4  0
  6 20  1  0
  6 26  1  0
  7 24  4  0
  8 15  4  0
  8 24  4  0
  9 14  4  0
  9 21  4  0
 10 12  4  0
 10 27  4  0
 11 12  4  0
 11 23  4  0
 13 23  4  0
 13 27  4  0
 14 20  4  0
 15 22  4  0
 16 18  4  0
 16 25  2  0
 16 28  4  0
 21 28  4  0
 24 27  1  0
M  END
$$$$

 Created by Python create_sdf_string function

 28 31  0  0  0  0  0  0  0  0999 V2000
   -1.0054  -13.0622   19.1198 C   0  0  0  0  0  0  0  0  0  0  0  0
    3.1478   -8.5360   28.5161 C   0  0  0  0  0  0  0  0  0  0  0  0
    0.5798   -7.1906   27.9330 C   0  0  0  0  0  0  0  0  0  0  0  0
    0.3978   -5.1561   26.6955 C   0  0  0  0  0  0  0  0  0  0  0  0
    2.3063  -10.0533   30.0125 C   0  0  0  0  0  0  0  0  0  0  0  0
    1.8591   -6.8254   27.4685 N   0  0  0  0  0  0  0  0  0  0  0  0
   -0.2167  -12.1055   18.5568 C   0  0  0  0  0  0  0  0  0  0  0  0
   -2.0661  -10.6994   18.1916 C   0  0  0  0  0  0  0  0  0  0  0  0
    5.2703   -7.5691   27.1123 C   0  0  0  0  0  0  0  0  0  0  0  0
    1.6204   -9.9887   17.2935 C   0  0  0  0  0  0  0  0  0  0  0  0
    1.8931   -7.9265   16.2047 C   0  0  0  0  0  0  0  0  0  0  0  0
    2.4396   -9.0801   16.7132 C   0  0  0  0  0  0  0  0  0  0  0  0
   -0.2575   -8.6234   16.8582 C   0  0  0  0  0  0  0  0  0  0  0  0
    4.0614   -7.0367   27.0106 N   0  0  0  0  0  0  0  0  0  0  0  0
   -2.9133  -11.6279   18.7578 C   0  0  0  0  0  0  0  0  0  0  0  0
    4.5688  -10.1291   29.5758 C   0  0  0  0  0  0  0  0  0  0  0  0
    2.1008   -9.0410   29.1852 N   0  0  0  0  0  0  0  0  0  0  0  0
    3.4829  -10.5697   30.2091 N   0  0  0  0  0  0  0  0  0  0  0  0
   -0.3363   -6.1172   27.5628 C   0  0  0  0  0  0  0  0  0  0  0  0
    3.0331   -7.4400   27.6362 C   0  0  0  0  0  0  0  0  0  0  0  0
    5.4553   -8.5933   27.9644 C   0  0  0  0  0  0  0  0  0  0  0  0
   -2.3870  -12.8440   19.2512 C   0  0  0  0  0  0  0  0  0  0  0  0
    0.5331   -7.6964   16.2751 C   0  0  0  0  0  0  0  0  0  0  0  0
   -0.6740  -10.8737   18.0482 C   0  0  0  0  0  0  0  0  0  0  0  0
    5.6751  -10.5870   29.7637 O   0  0  0  0  0  0  0  0  0  0  0  0
    1.7612   -5.6483   26.7172 C   0  0  0  0  0  0  0  0  0  0  0  0
    0.2221   -9.8326   17.4055 C   0  0  0  0  0  0  0  0  0  0  0  0
    4.3850   -9.0730   28.6745 C   0  0  0  0  0  0  0  0  0  0  0  0
  1  7  4  0
  1 22  4  0
  2 17  4  0
  2 20  4  0
  2 28  4  0
  3  6  1  0
  3 19  1  0
  4 19  1  0
  4 26  1  0
  5 17  4  0
  5 18  4  0
  6 20  1  0
  6 26  1  0
  7 24  4  0
  8 15  4  0
  8 24  4  0
  9 14  4  0
  9 21  4  0
 10 12  4  0
 10 27  4  0
 11 12  4  0
 11 23  4  0
 13 23  4  0
 13 27  4  0
 14 20  4  0
 15 22  4  0
 16 18  4  0
 16 25  2  0
 16 28  4  0
 21 28  4  0
 24 27  1  0
M  END
$$$$

 Created by Python create_sdf_string function

 28 31  0  0  0  0  0  0  0  0999 V2000
   -1.0054  -13.0622   19.1198 C   0  0  0  0  0  0  0  0  0  0  0  0
    3.1478   -8.5360   28.5161 C   0  0  0  0  0  0  0  0  0  0  0  0
    0.5798   -7.1906   27.9330 C   0  0  0  0  0  0  0  0  0  0  0  0
    0.3978   -5.1561   26.6955 C   0  0  0  0  0  0  0  0  0  0  0  0
    2.3063  -10.0533   30.0125 C   0  0  0  0  0  0  0  0  0  0  0  0
    1.8591   -6.8254   27.4685 N   0  0  0  0  0  0  0  0  0  0  0  0
   -0.2167  -12.1055   18.5568 C   0  0  0  0  0  0  0  0  0  0  0  0
   -2.0661  -10.6994   18.1916 C   0  0  0  0  0  0  0  0  0  0  0  0
    5.2703   -7.5691   27.1123 C   0  0  0  0  0  0  0  0  0  0  0  0
    1.6204   -9.9887   17.2935 C   0  0  0  0  0  0  0  0  0  0  0  0
    1.8931   -7.9265   16.2047 C   0  0  0  0  0  0  0  0  0  0  0  0
    2.4396   -9.0801   16.7132 C   0  0  0  0  0  0  0  0  0  0  0  0
   -0.2575   -8.6234   16.8582 C   0  0  0  0  0  0  0  0  0  0  0  0
    4.0614   -7.0367   27.0106 N   0  0  0  0  0  0  0  0  0  0  0  0
   -2.9133  -11.6279   18.7578 C   0  0  0  0  0  0  0  0  0  0  0  0
    4.5688  -10.1291   29.5758 C   0  0  0  0  0  0  0  0  0  0  0  0
    2.1008   -9.0410   29.1852 N   0  0  0  0  0  0  0  0  0  0  0  0
    3.4829  -10.5697   30.2091 N   0  0  0  0  0  0  0  0  0  0  0  0
   -0.3363   -6.1172   27.5628 C   0  0  0  0  0  0  0  0  0  0  0  0
    3.0331   -7.4400   27.6362 C   0  0  0  0  0  0  0  0  0  0  0  0
    5.4553   -8.5933   27.9644 C   0  0  0  0  0  0  0  0  0  0  0  0
   -2.3870  -12.8440   19.2512 C   0  0  0  0  0  0  0  0  0  0  0  0
    0.5331   -7.6964   16.2751 C   0  0  0  0  0  0  0  0  0  0  0  0
   -0.6740  -10.8737   18.0482 C   0  0  0  0  0  0  0  0  0  0  0  0
    5.6751  -10.5870   29.7637 O   0  0  0  0  0  0  0  0  0  0  0  0
    1.7612   -5.6483   26.7172 C   0  0  0  0  0  0  0  0  0  0  0  0
    0.2221   -9.8326   17.4055 C   0  0  0  0  0  0  0  0  0  0  0  0
    4.3850   -9.0730   28.6745 C   0  0  0  0  0  0  0  0  0  0  0  0
  1  7  4  0
  1 22  4  0
  2 17  4  0
  2 20  4  0
  2 28  4  0
  3  6  1  0
  3 19  1  0
  4 19  1  0
  4 26  1  0
  5 17  4  0
  5 18  4  0
  6 20  1  0
  6 26  1  0
  7 24  4  0
  8 15  4  0
  8 24  4  0
  9 14  4  0
  9 21  4  0
 10 12  4  0
 10 27  4  0
 11 12  4  0
 11 23  4  0
 13 23  4  0
 13 27  4  0
 14 20  4  0
 15 22  4  0
 16 18  4  0
 16 25  2  0
 16 28  4  0
 21 28  4  0
 24 27  1  0
M  END
$$$$

 Created by Python create_sdf_string function

 28 31  0  0  0  0  0  0  0  0999 V2000
   -1.0054  -13.0622   19.1198 C   0  0  0  0  0  0  0  0  0  0  0  0
    3.1478   -8.5360   28.5161 C   0  0  0  0  0  0  0  0  0  0  0  0
    0.5798   -7.1906   27.9330 C   0  0  0  0  0  0  0  0  0  0  0  0
    0.3978   -5.1561   26.6955 C   0  0  0  0  0  0  0  0  0  0  0  0
    2.3063  -10.0533   30.0125 C   0  0  0  0  0  0  0  0  0  0  0  0
    1.8591   -6.8254   27.4685 N   0  0  0  0  0  0  0  0  0  0  0  0
   -0.2167  -12.1055   18.5568 C   0  0  0  0  0  0  0  0  0  0  0  0
   -2.0661  -10.6994   18.1916 C   0  0  0  0  0  0  0  0  0  0  0  0
    5.2703   -7.5691   27.1123 C   0  0  0  0  0  0  0  0  0  0  0  0
    1.6204   -9.9887   17.2935 C   0  0  0  0  0  0  0  0  0  0  0  0
    1.8931   -7.9265   16.2047 C   0  0  0  0  0  0  0  0  0  0  0  0
    2.4396   -9.0801   16.7132 C   0  0  0  0  0  0  0  0  0  0  0  0
   -0.2575   -8.6234   16.8582 C   0  0  0  0  0  0  0  0  0  0  0  0
    4.0614   -7.0367   27.0106 N   0  0  0  0  0  0  0  0  0  0  0  0
   -2.9133  -11.6279   18.7578 C   0  0  0  0  0  0  0  0  0  0  0  0
    4.5688  -10.1291   29.5758 C   0  0  0  0  0  0  0  0  0  0  0  0
    2.1008   -9.0410   29.1852 N   0  0  0  0  0  0  0  0  0  0  0  0
    3.4829  -10.5697   30.2091 N   0  0  0  0  0  0  0  0  0  0  0  0
   -0.3363   -6.1172   27.5628 C   0  0  0  0  0  0  0  0  0  0  0  0
    3.0331   -7.4400   27.6362 C   0  0  0  0  0  0  0  0  0  0  0  0
    5.4553   -8.5933   27.9644 C   0  0  0  0  0  0  0  0  0  0  0  0
   -2.3870  -12.8440   19.2512 C   0  0  0  0  0  0  0  0  0  0  0  0
    0.5331   -7.6964   16.2751 C   0  0  0  0  0  0  0  0  0  0  0  0
   -0.6740  -10.8737   18.0482 C   0  0  0  0  0  0  0  0  0  0  0  0
    5.6751  -10.5870   29.7637 O   0  0  0  0  0  0  0  0  0  0  0  0
    1.7612   -5.6483   26.7172 C   0  0  0  0  0  0  0  0  0  0  0  0
    0.2221   -9.8326   17.4055 C   0  0  0  0  0  0  0  0  0  0  0  0
    4.3850   -9.0730   28.6745 C   0  0  0  0  0  0  0  0  0  0  0  0
  1  7  4  0
  1 22  4  0
  2 17  4  0
  2 20  4  0
  2 28  4  0
  3  6  1  0
  3 19  1  0
  4 19  1  0
  4 26  1  0
  5 17  4  0
  5 18  4  0
  6 20  1  0
  6 26  1  0
  7 24  4  0
  8 15  4  0
  8 24  4  0
  9 14  4  0
  9 21  4  0
 10 12  4  0
 10 27  4  0
 11 12  4  0
 11 23  4  0
 13 23  4  0
 13 27  4  0
 14 20  4  0
 15 22  4  0
 16 18  4  0
 16 25  2  0
 16 28  4  0
 21 28  4  0
 24 27  1  0
M  END
$$$$

 Created by Python create_sdf_string function

 28 31  0  0  0  0  0  0  0  0999 V2000
   -1.0054  -13.0622   19.1198 C   0  0  0  0  0  0  0  0  0  0  0  0
    3.1478   -8.5360   28.5161 C   0  0  0  0  0  0  0  0  0  0  0  0
    0.5798   -7.1906   27.9330 C   0  0  0  0  0  0  0  0  0  0  0  0
    0.3978   -5.1561   26.6955 C   0  0  0  0  0  0  0  0  0  0  0  0
    2.3063  -10.0533   30.0125 C   0  0  0  0  0  0  0  0  0  0  0  0
    1.8591   -6.8254   27.4685 N   0  0  0  0  0  0  0  0  0  0  0  0
   -0.2167  -12.1055   18.5568 C   0  0  0  0  0  0  0  0  0  0  0  0
   -2.0661  -10.6994   18.1916 C   0  0  0  0  0  0  0  0  0  0  0  0
    5.2703   -7.5691   27.1123 C   0  0  0  0  0  0  0  0  0  0  0  0
    1.6204   -9.9887   17.2935 C   0  0  0  0  0  0  0  0  0  0  0  0
    1.8931   -7.9265   16.2047 C   0  0  0  0  0  0  0  0  0  0  0  0
    2.4396   -9.0801   16.7132 C   0  0  0  0  0  0  0  0  0  0  0  0
   -0.2575   -8.6234   16.8582 C   0  0  0  0  0  0  0  0  0  0  0  0
    4.0614   -7.0367   27.0106 N   0  0  0  0  0  0  0  0  0  0  0  0
   -2.9133  -11.6279   18.7578 C   0  0  0  0  0  0  0  0  0  0  0  0
    4.5688  -10.1291   29.5758 C   0  0  0  0  0  0  0  0  0  0  0  0
    2.1008   -9.0410   29.1852 N   0  0  0  0  0  0  0  0  0  0  0  0
    3.4829  -10.5697   30.2091 N   0  0  0  0  0  0  0  0  0  0  0  0
   -0.3363   -6.1172   27.5628 C   0  0  0  0  0  0  0  0  0  0  0  0
    3.0331   -7.4400   27.6362 C   0  0  0  0  0  0  0  0  0  0  0  0
    5.4553   -8.5933   27.9644 C   0  0  0  0  0  0  0  0  0  0  0  0
   -2.3870  -12.8440   19.2512 C   0  0  0  0  0  0  0  0  0  0  0  0
    0.5331   -7.6964   16.2751 C   0  0  0  0  0  0  0  0  0  0  0  0
   -0.6740  -10.8737   18.0482 C   0  0  0  0  0  0  0  0  0  0  0  0
    5.6751  -10.5870   29.7637 O   0  0  0  0  0  0  0  0  0  0  0  0
    1.7612   -5.6483   26.7172 C   0  0  0  0  0  0  0  0  0  0  0  0
    0.2221   -9.8326   17.4055 C   0  0  0  0  0  0  0  0  0  0  0  0
    4.3850   -9.0730   28.6745 C   0  0  0  0  0  0  0  0  0  0  0  0
  1  7  4  0
  1 22  4  0
  2 17  4  0
  2 20  4  0
  2 28  4  0
  3  6  1  0
  3 19  1  0
  4 19  1  0
  4 26  1  0
  5 17  4  0
  5 18  4  0
  6 20  1  0
  6 26  1  0
  7 24  4  0
  8 15  4  0
  8 24  4  0
  9 14  4  0
  9 21  4  0
 10 12  4  0
 10 27  4  0
 11 12  4  0
 11 23  4  0
 13 23  4  0
 13 27  4  0
 14 20  4  0
 15 22  4  0
 16 18  4  0
 16 25  2  0
 16 28  4  0
 21 28  4  0
 24 27  1  0
M  END
$$$$

 Created by Python create_sdf_string function

 28 31  0  0  0  0  0  0  0  0999 V2000
   -1.0054  -13.0622   19.1198 C   0  0  0  0  0  0  0  0  0  0  0  0
    3.1478   -8.5360   28.5161 C   0  0  0  0  0  0  0  0  0  0  0  0
    0.5798   -7.1906   27.9330 C   0  0  0  0  0  0  0  0  0  0  0  0
    0.3978   -5.1561   26.6955 C   0  0  0  0  0  0  0  0  0  0  0  0
    2.3063  -10.0533   30.0125 C   0  0  0  0  0  0  0  0  0  0  0  0
    1.8591   -6.8254   27.4685 N   0  0  0  0  0  0  0  0  0  0  0  0
   -0.2167  -12.1055   18.5568 C   0  0  0  0  0  0  0  0  0  0  0  0
   -2.0661  -10.6994   18.1916 C   0  0  0  0  0  0  0  0  0  0  0  0
    5.2703   -7.5691   27.1123 C   0  0  0  0  0  0  0  0  0  0  0  0
    1.6204   -9.9887   17.2935 C   0  0  0  0  0  0  0  0  0  0  0  0
    1.8931   -7.9265   16.2047 C   0  0  0  0  0  0  0  0  0  0  0  0
    2.4396   -9.0801   16.7132 C   0  0  0  0  0  0  0  0  0  0  0  0
   -0.2575   -8.6234   16.8582 C   0  0  0  0  0  0  0  0  0  0  0  0
    4.0614   -7.0367   27.0106 N   0  0  0  0  0  0  0  0  0  0  0  0
   -2.9133  -11.6279   18.7578 C   0  0  0  0  0  0  0  0  0  0  0  0
    4.5688  -10.1291   29.5758 C   0  0  0  0  0  0  0  0  0  0  0  0
    2.1008   -9.0410   29.1852 N   0  0  0  0  0  0  0  0  0  0  0  0
    3.4829  -10.5697   30.2091 N   0  0  0  0  0  0  0  0  0  0  0  0
   -0.3363   -6.1172   27.5628 C   0  0  0  0  0  0  0  0  0  0  0  0
    3.0331   -7.4400   27.6362 C   0  0  0  0  0  0  0  0  0  0  0  0
    5.4553   -8.5933   27.9644 C   0  0  0  0  0  0  0  0  0  0  0  0
   -2.3870  -12.8440   19.2512 C   0  0  0  0  0  0  0  0  0  0  0  0
    0.5331   -7.6964   16.2751 C   0  0  0  0  0  0  0  0  0  0  0  0
   -0.6740  -10.8737   18.0482 C   0  0  0  0  0  0  0  0  0  0  0  0
    5.6751  -10.5870   29.7637 O   0  0  0  0  0  0  0  0  0  0  0  0
    1.7612   -5.6483   26.7172 C   0  0  0  0  0  0  0  0  0  0  0  0
    0.2221   -9.8326   17.4055 C   0  0  0  0  0  0  0  0  0  0  0  0
    4.3850   -9.0730   28.6745 C   0  0  0  0  0  0  0  0  0  0  0  0
  1  7  4  0
  1 22  4  0
  2 17  4  0
  2 20  4  0
  2 28  4  0
  3  6  1  0
  3 19  1  0
  4 19  1  0
  4 26  1  0
  5 17  4  0
  5 18  4  0
  6 20  1  0
  6 26  1  0
  7 24  4  0
  8 15  4  0
  8 24  4  0
  9 14  4  0
  9 21  4  0
 10 12  4  0
 10 27  4  0
 11 12  4  0
 11 23  4  0
 13 23  4  0
 13 27  4  0
 14 20  4  0
 15 22  4  0
 16 18  4  0
 16 25  2  0
 16 28  4  0
 21 28  4  0
 24 27  1  0
M  END
$$$$

 Created by Python create_sdf_string function

 28 31  0  0  0  0  0  0  0  0999 V2000
   -1.0054  -13.0622   19.1198 C   0  0  0  0  0  0  0  0  0  0  0  0
    3.1478   -8.5360   28.5161 C   0  0  0  0  0  0  0  0  0  0  0  0
    0.5798   -7.1906   27.9330 C   0  0  0  0  0  0  0  0  0  0  0  0
    0.3978   -5.1561   26.6955 C   0  0  0  0  0  0  0  0  0  0  0  0
    2.3063  -10.0533   30.0125 C   0  0  0  0  0  0  0  0  0  0  0  0
    1.8591   -6.8254   27.4685 N   0  0  0  0  0  0  0  0  0  0  0  0
   -0.2167  -12.1055   18.5568 C   0  0  0  0  0  0  0  0  0  0  0  0
   -2.0661  -10.6994   18.1916 C   0  0  0  0  0  0  0  0  0  0  0  0
    5.2703   -7.5691   27.1123 C   0  0  0  0  0  0  0  0  0  0  0  0
    1.6204   -9.9887   17.2935 C   0  0  0  0  0  0  0  0  0  0  0  0
    1.8931   -7.9265   16.2047 C   0  0  0  0  0  0  0  0  0  0  0  0
    2.4396   -9.0801   16.7132 C   0  0  0  0  0  0  0  0  0  0  0  0
   -0.2575   -8.6234   16.8582 C   0  0  0  0  0  0  0  0  0  0  0  0
    4.0614   -7.0367   27.0106 N   0  0  0  0  0  0  0  0  0  0  0  0
   -2.9133  -11.6279   18.7578 C   0  0  0  0  0  0  0  0  0  0  0  0
    4.5688  -10.1291   29.5758 C   0  0  0  0  0  0  0  0  0  0  0  0
    2.1008   -9.0410   29.1852 N   0  0  0  0  0  0  0  0  0  0  0  0
    3.4829  -10.5697   30.2091 N   0  0  0  0  0  0  0  0  0  0  0  0
   -0.3363   -6.1172   27.5628 C   0  0  0  0  0  0  0  0  0  0  0  0
    3.0331   -7.4400   27.6362 C   0  0  0  0  0  0  0  0  0  0  0  0
    5.4553   -8.5933   27.9644 C   0  0  0  0  0  0  0  0  0  0  0  0
   -2.3870  -12.8440   19.2512 C   0  0  0  0  0  0  0  0  0  0  0  0
    0.5331   -7.6964   16.2751 C   0  0  0  0  0  0  0  0  0  0  0  0
   -0.6740  -10.8737   18.0482 C   0  0  0  0  0  0  0  0  0  0  0  0
    5.6751  -10.5870   29.7637 O   0  0  0  0  0  0  0  0  0  0  0  0
    1.7612   -5.6483   26.7172 C   0  0  0  0  0  0  0  0  0  0  0  0
    0.2221   -9.8326   17.4055 C   0  0  0  0  0  0  0  0  0  0  0  0
    4.3850   -9.0730   28.6745 C   0  0  0  0  0  0  0  0  0  0  0  0
  1  7  4  0
  1 22  4  0
  2 17  4  0
  2 20  4  0
  2 28  4  0
  3  6  1  0
  3 19  1  0
  4 19  1  0
  4 26  1  0
  5 17  4  0
  5 18  4  0
  6 20  1  0
  6 26  1  0
  7 24  4  0
  8 15  4  0
  8 24  4  0
  9 14  4  0
  9 21  4  0
 10 12  4  0
 10 27  4  0
 11 12  4  0
 11 23  4  0
 13 23  4  0
 13 27  4  0
 14 20  4  0
 15 22  4  0
 16 18  4  0
 16 25  2  0
 16 28  4  0
 21 28  4  0
 24 27  1  0
M  END
$$$$

 Created by Python create_sdf_string function

 28 31  0  0  0  0  0  0  0  0999 V2000
   -1.0054  -13.0622   19.1198 C   0  0  0  0  0  0  0  0  0  0  0  0
    3.1478   -8.5360   28.5161 C   0  0  0  0  0  0  0  0  0  0  0  0
    0.5798   -7.1906   27.9330 C   0  0  0  0  0  0  0  0  0  0  0  0
    0.3978   -5.1561   26.6955 C   0  0  0  0  0  0  0  0  0  0  0  0
    2.3063  -10.0533   30.0125 C   0  0  0  0  0  0  0  0  0  0  0  0
    1.8591   -6.8254   27.4685 N   0  0  0  0  0  0  0  0  0  0  0  0
   -0.2167  -12.1055   18.5568 C   0  0  0  0  0  0  0  0  0  0  0  0
   -2.0661  -10.6994   18.1916 C   0  0  0  0  0  0  0  0  0  0  0  0
    5.2703   -7.5691   27.1123 C   0  0  0  0  0  0  0  0  0  0  0  0
    1.6204   -9.9887   17.2935 C   0  0  0  0  0  0  0  0  0  0  0  0
    1.8931   -7.9265   16.2047 C   0  0  0  0  0  0  0  0  0  0  0  0
    2.4396   -9.0801   16.7132 C   0  0  0  0  0  0  0  0  0  0  0  0
   -0.2575   -8.6234   16.8582 C   0  0  0  0  0  0  0  0  0  0  0  0
    4.0614   -7.0367   27.0106 N   0  0  0  0  0  0  0  0  0  0  0  0
   -2.9133  -11.6279   18.7578 C   0  0  0  0  0  0  0  0  0  0  0  0
    4.5688  -10.1291   29.5758 C   0  0  0  0  0  0  0  0  0  0  0  0
    2.1008   -9.0410   29.1852 N   0  0  0  0  0  0  0  0  0  0  0  0
    3.4829  -10.5697   30.2091 N   0  0  0  0  0  0  0  0  0  0  0  0
   -0.3363   -6.1172   27.5628 C   0  0  0  0  0  0  0  0  0  0  0  0
    3.0331   -7.4400   27.6362 C   0  0  0  0  0  0  0  0  0  0  0  0
    5.4553   -8.5933   27.9644 C   0  0  0  0  0  0  0  0  0  0  0  0
   -2.3870  -12.8440   19.2512 C   0  0  0  0  0  0  0  0  0  0  0  0
    0.5331   -7.6964   16.2751 C   0  0  0  0  0  0  0  0  0  0  0  0
   -0.6740  -10.8737   18.0482 C   0  0  0  0  0  0  0  0  0  0  0  0
    5.6751  -10.5870   29.7637 O   0  0  0  0  0  0  0  0  0  0  0  0
    1.7612   -5.6483   26.7172 C   0  0  0  0  0  0  0  0  0  0  0  0
    0.2221   -9.8326   17.4055 C   0  0  0  0  0  0  0  0  0  0  0  0
    4.3850   -9.0730   28.6745 C   0  0  0  0  0  0  0  0  0  0  0  0
  1  7  4  0
  1 22  4  0
  2 17  4  0
  2 20  4  0
  2 28  4  0
  3  6  1  0
  3 19  1  0
  4 19  1  0
  4 26  1  0
  5 17  4  0
  5 18  4  0
  6 20  1  0
  6 26  1  0
  7 24  4  0
  8 15  4  0
  8 24  4  0
  9 14  4  0
  9 21  4  0
 10 12  4  0
 10 27  4  0
 11 12  4  0
 11 23  4  0
 13 23  4  0
 13 27  4  0
 14 20  4  0
 15 22  4  0
 16 18  4  0
 16 25  2  0
 16 28  4  0
 21 28  4  0
 24 27  1  0
M  END
$$$$

 Created by Python create_sdf_string function

 28 31  0  0  0  0  0  0  0  0999 V2000
   -1.0054  -13.0622   19.1198 C   0  0  0  0  0  0  0  0  0  0  0  0
    3.1478   -8.5360   28.5161 C   0  0  0  0  0  0  0  0  0  0  0  0
    0.5798   -7.1906   27.9330 C   0  0  0  0  0  0  0  0  0  0  0  0
    0.3978   -5.1561   26.6955 C   0  0  0  0  0  0  0  0  0  0  0  0
    2.3063  -10.0533   30.0125 C   0  0  0  0  0  0  0  0  0  0  0  0
    1.8591   -6.8254   27.4685 N   0  0  0  0  0  0  0  0  0  0  0  0
   -0.2167  -12.1055   18.5568 C   0  0  0  0  0  0  0  0  0  0  0  0
   -2.0661  -10.6994   18.1916 C   0  0  0  0  0  0  0  0  0  0  0  0
    5.2703   -7.5691   27.1123 C   0  0  0  0  0  0  0  0  0  0  0  0
    1.6204   -9.9887   17.2935 C   0  0  0  0  0  0  0  0  0  0  0  0
    1.8931   -7.9265   16.2047 C   0  0  0  0  0  0  0  0  0  0  0  0
    2.4396   -9.0801   16.7132 C   0  0  0  0  0  0  0  0  0  0  0  0
   -0.2575   -8.6234   16.8582 C   0  0  0  0  0  0  0  0  0  0  0  0
    4.0614   -7.0367   27.0106 N   0  0  0  0  0  0  0  0  0  0  0  0
   -2.9133  -11.6279   18.7578 C   0  0  0  0  0  0  0  0  0  0  0  0
    4.5688  -10.1291   29.5758 C   0  0  0  0  0  0  0  0  0  0  0  0
    2.1008   -9.0410   29.1852 N   0  0  0  0  0  0  0  0  0  0  0  0
    3.4829  -10.5697   30.2091 N   0  0  0  0  0  0  0  0  0  0  0  0
   -0.3363   -6.1172   27.5628 C   0  0  0  0  0  0  0  0  0  0  0  0
    3.0331   -7.4400   27.6362 C   0  0  0  0  0  0  0  0  0  0  0  0
    5.4553   -8.5933   27.9644 C   0  0  0  0  0  0  0  0  0  0  0  0
   -2.3870  -12.8440   19.2512 C   0  0  0  0  0  0  0  0  0  0  0  0
    0.5331   -7.6964   16.2751 C   0  0  0  0  0  0  0  0  0  0  0  0
   -0.6740  -10.8737   18.0482 C   0  0  0  0  0  0  0  0  0  0  0  0
    5.6751  -10.5870   29.7637 O   0  0  0  0  0  0  0  0  0  0  0  0
    1.7612   -5.6483   26.7172 C   0  0  0  0  0  0  0  0  0  0  0  0
    0.2221   -9.8326   17.4055 C   0  0  0  0  0  0  0  0  0  0  0  0
    4.3850   -9.0730   28.6745 C   0  0  0  0  0  0  0  0  0  0  0  0
  1  7  4  0
  1 22  4  0
  2 17  4  0
  2 20  4  0
  2 28  4  0
  3  6  1  0
  3 19  1  0
  4 19  1  0
  4 26  1  0
  5 17  4  0
  5 18  4  0
  6 20  1  0
  6 26  1  0
  7 24  4  0
  8 15  4  0
  8 24  4  0
  9 14  4  0
  9 21  4  0
 10 12  4  0
 10 27  4  0
 11 12  4  0
 11 23  4  0
 13 23  4  0
 13 27  4  0
 14 20  4  0
 15 22  4  0
 16 18  4  0
 16 25  2  0
 16 28  4  0
 21 28  4  0
 24 27  1  0
M  END
$$$$

 Created by Python create_sdf_string function

 28 31  0  0  0  0  0  0  0  0999 V2000
   -1.0054  -13.0622   19.1198 C   0  0  0  0  0  0  0  0  0  0  0  0
    3.1478   -8.5360   28.5161 C   0  0  0  0  0  0  0  0  0  0  0  0
    0.5798   -7.1906   27.9330 C   0  0  0  0  0  0  0  0  0  0  0  0
    0.3978   -5.1561   26.6955 C   0  0  0  0  0  0  0  0  0  0  0  0
    2.3063  -10.0533   30.0125 C   0  0  0  0  0  0  0  0  0  0  0  0
    1.8591   -6.8254   27.4685 N   0  0  0  0  0  0  0  0  0  0  0  0
   -0.2167  -12.1055   18.5568 C   0  0  0  0  0  0  0  0  0  0  0  0
   -2.0661  -10.6994   18.1916 C   0  0  0  0  0  0  0  0  0  0  0  0
    5.2703   -7.5691   27.1123 C   0  0  0  0  0  0  0  0  0  0  0  0
    1.6204   -9.9887   17.2935 C   0  0  0  0  0  0  0  0  0  0  0  0
    1.8931   -7.9265   16.2047 C   0  0  0  0  0  0  0  0  0  0  0  0
    2.4396   -9.0801   16.7132 C   0  0  0  0  0  0  0  0  0  0  0  0
   -0.2575   -8.6234   16.8582 C   0  0  0  0  0  0  0  0  0  0  0  0
    4.0614   -7.0367   27.0106 N   0  0  0  0  0  0  0  0  0  0  0  0
   -2.9133  -11.6279   18.7578 C   0  0  0  0  0  0  0  0  0  0  0  0
    4.5688  -10.1291   29.5758 C   0  0  0  0  0  0  0  0  0  0  0  0
    2.1008   -9.0410   29.1852 N   0  0  0  0  0  0  0  0  0  0  0  0
    3.4829  -10.5697   30.2091 N   0  0  0  0  0  0  0  0  0  0  0  0
   -0.3363   -6.1172   27.5628 C   0  0  0  0  0  0  0  0  0  0  0  0
    3.0331   -7.4400   27.6362 C   0  0  0  0  0  0  0  0  0  0  0  0
    5.4553   -8.5933   27.9644 C   0  0  0  0  0  0  0  0  0  0  0  0
   -2.3870  -12.8440   19.2512 C   0  0  0  0  0  0  0  0  0  0  0  0
    0.5331   -7.6964   16.2751 C   0  0  0  0  0  0  0  0  0  0  0  0
   -0.6740  -10.8737   18.0482 C   0  0  0  0  0  0  0  0  0  0  0  0
    5.6751  -10.5870   29.7637 O   0  0  0  0  0  0  0  0  0  0  0  0
    1.7612   -5.6483   26.7172 C   0  0  0  0  0  0  0  0  0  0  0  0
    0.2221   -9.8326   17.4055 C   0  0  0  0  0  0  0  0  0  0  0  0
    4.3850   -9.0730   28.6745 C   0  0  0  0  0  0  0  0  0  0  0  0
  1  7  4  0
  1 22  4  0
  2 17  4  0
  2 20  4  0
  2 28  4  0
  3  6  1  0
  3 19  1  0
  4 19  1  0
  4 26  1  0
  5 17  4  0
  5 18  4  0
  6 20  1  0
  6 26  1  0
  7 24  4  0
  8 15  4  0
  8 24  4  0
  9 14  4  0
  9 21  4  0
 10 12  4  0
 10 27  4  0
 11 12  4  0
 11 23  4  0
 13 23  4  0
 13 27  4  0
 14 20  4  0
 15 22  4  0
 16 18  4  0
 16 25  2  0
 16 28  4  0
 21 28  4  0
 24 27  1  0
M  END
$$$$

 Created by Python create_sdf_string function

 28 31  0  0  0  0  0  0  0  0999 V2000
   -1.0054  -13.0622   19.1198 C   0  0  0  0  0  0  0  0  0  0  0  0
    3.1478   -8.5360   28.5161 C   0  0  0  0  0  0  0  0  0  0  0  0
    0.5798   -7.1906   27.9330 C   0  0  0  0  0  0  0  0  0  0  0  0
    0.3978   -5.1561   26.6955 C   0  0  0  0  0  0  0  0  0  0  0  0
    2.3063  -10.0533   30.0125 C   0  0  0  0  0  0  0  0  0  0  0  0
    1.8591   -6.8254   27.4685 N   0  0  0  0  0  0  0  0  0  0  0  0
   -0.2167  -12.1055   18.5568 C   0  0  0  0  0  0  0  0  0  0  0  0
   -2.0661  -10.6994   18.1916 C   0  0  0  0  0  0  0  0  0  0  0  0
    5.2703   -7.5691   27.1123 C   0  0  0  0  0  0  0  0  0  0  0  0
    1.6204   -9.9887   17.2935 C   0  0  0  0  0  0  0  0  0  0  0  0
    1.8931   -7.9265   16.2047 C   0  0  0  0  0  0  0  0  0  0  0  0
    2.4396   -9.0801   16.7132 C   0  0  0  0  0  0  0  0  0  0  0  0
   -0.2575   -8.6234   16.8582 C   0  0  0  0  0  0  0  0  0  0  0  0
    4.0614   -7.0367   27.0106 N   0  0  0  0  0  0  0  0  0  0  0  0
   -2.9133  -11.6279   18.7578 C   0  0  0  0  0  0  0  0  0  0  0  0
    4.5688  -10.1291   29.5758 C   0  0  0  0  0  0  0  0  0  0  0  0
    2.1008   -9.0410   29.1852 N   0  0  0  0  0  0  0  0  0  0  0  0
    3.4829  -10.5697   30.2091 N   0  0  0  0  0  0  0  0  0  0  0  0
   -0.3363   -6.1172   27.5628 C   0  0  0  0  0  0  0  0  0  0  0  0
    3.0331   -7.4400   27.6362 C   0  0  0  0  0  0  0  0  0  0  0  0
    5.4553   -8.5933   27.9644 C   0  0  0  0  0  0  0  0  0  0  0  0
   -2.3870  -12.8440   19.2512 C   0  0  0  0  0  0  0  0  0  0  0  0
    0.5331   -7.6964   16.2751 C   0  0  0  0  0  0  0  0  0  0  0  0
   -0.6740  -10.8737   18.0482 C   0  0  0  0  0  0  0  0  0  0  0  0
    5.6751  -10.5870   29.7637 O   0  0  0  0  0  0  0  0  0  0  0  0
    1.7612   -5.6483   26.7172 C   0  0  0  0  0  0  0  0  0  0  0  0
    0.2221   -9.8326   17.4055 C   0  0  0  0  0  0  0  0  0  0  0  0
    4.3850   -9.0730   28.6745 C   0  0  0  0  0  0  0  0  0  0  0  0
  1  7  4  0
  1 22  4  0
  2 17  4  0
  2 20  4  0
  2 28  4  0
  3  6  1  0
  3 19  1  0
  4 19  1  0
  4 26  1  0
  5 17  4  0
  5 18  4  0
  6 20  1  0
  6 26  1  0
  7 24  4  0
  8 15  4  0
  8 24  4  0
  9 14  4  0
  9 21  4  0
 10 12  4  0
 10 27  4  0
 11 12  4  0
 11 23  4  0
 13 23  4  0
 13 27  4  0
 14 20  4  0
 15 22  4  0
 16 18  4  0
 16 25  2  0
 16 28  4  0
 21 28  4  0
 24 27  1  0
M  END
$$$$

 Created by Python create_sdf_string function

 28 31  0  0  0  0  0  0  0  0999 V2000
   -1.0054  -13.0622   19.1198 C   0  0  0  0  0  0  0  0  0  0  0  0
    3.1478   -8.5360   28.5161 C   0  0  0  0  0  0  0  0  0  0  0  0
    0.5798   -7.1906   27.9330 C   0  0  0  0  0  0  0  0  0  0  0  0
    0.3978   -5.1561   26.6955 C   0  0  0  0  0  0  0  0  0  0  0  0
    2.3063  -10.0533   30.0125 C   0  0  0  0  0  0  0  0  0  0  0  0
    1.8591   -6.8254   27.4685 N   0  0  0  0  0  0  0  0  0  0  0  0
   -0.2167  -12.1055   18.5568 C   0  0  0  0  0  0  0  0  0  0  0  0
   -2.0661  -10.6994   18.1916 C   0  0  0  0  0  0  0  0  0  0  0  0
    5.2703   -7.5691   27.1123 C   0  0  0  0  0  0  0  0  0  0  0  0
    1.6204   -9.9887   17.2935 C   0  0  0  0  0  0  0  0  0  0  0  0
    1.8931   -7.9265   16.2047 C   0  0  0  0  0  0  0  0  0  0  0  0
    2.4396   -9.0801   16.7132 C   0  0  0  0  0  0  0  0  0  0  0  0
   -0.2575   -8.6234   16.8582 C   0  0  0  0  0  0  0  0  0  0  0  0
    4.0614   -7.0367   27.0106 N   0  0  0  0  0  0  0  0  0  0  0  0
   -2.9133  -11.6279   18.7578 C   0  0  0  0  0  0  0  0  0  0  0  0
    4.5688  -10.1291   29.5758 C   0  0  0  0  0  0  0  0  0  0  0  0
    2.1008   -9.0410   29.1852 N   0  0  0  0  0  0  0  0  0  0  0  0
    3.4829  -10.5697   30.2091 N   0  0  0  0  0  0  0  0  0  0  0  0
   -0.3363   -6.1172   27.5628 C   0  0  0  0  0  0  0  0  0  0  0  0
    3.0331   -7.4400   27.6362 C   0  0  0  0  0  0  0  0  0  0  0  0
    5.4553   -8.5933   27.9644 C   0  0  0  0  0  0  0  0  0  0  0  0
   -2.3870  -12.8440   19.2512 C   0  0  0  0  0  0  0  0  0  0  0  0
    0.5331   -7.6964   16.2751 C   0  0  0  0  0  0  0  0  0  0  0  0
   -0.6740  -10.8737   18.0482 C   0  0  0  0  0  0  0  0  0  0  0  0
    5.6751  -10.5870   29.7637 O   0  0  0  0  0  0  0  0  0  0  0  0
    1.7612   -5.6483   26.7172 C   0  0  0  0  0  0  0  0  0  0  0  0
    0.2221   -9.8326   17.4055 C   0  0  0  0  0  0  0  0  0  0  0  0
    4.3850   -9.0730   28.6745 C   0  0  0  0  0  0  0  0  0  0  0  0
  1  7  4  0
  1 22  4  0
  2 17  4  0
  2 20  4  0
  2 28  4  0
  3  6  1  0
  3 19  1  0
  4 19  1  0
  4 26  1  0
  5 17  4  0
  5 18  4  0
  6 20  1  0
  6 26  1  0
  7 24  4  0
  8 15  4  0
  8 24  4  0
  9 14  4  0
  9 21  4  0
 10 12  4  0
 10 27  4  0
 11 12  4  0
 11 23  4  0
 13 23  4  0
 13 27  4  0
 14 20  4  0
 15 22  4  0
 16 18  4  0
 16 25  2  0
 16 28  4  0
 21 28  4  0
 24 27  1  0
M  END
$$$$

 Created by Python create_sdf_string function

 28 31  0  0  0  0  0  0  0  0999 V2000
   -1.0054  -13.0622   19.1198 C   0  0  0  0  0  0  0  0  0  0  0  0
    3.1478   -8.5360   28.5161 C   0  0  0  0  0  0  0  0  0  0  0  0
    0.5798   -7.1906   27.9330 C   0  0  0  0  0  0  0  0  0  0  0  0
    0.3978   -5.1561   26.6955 C   0  0  0  0  0  0  0  0  0  0  0  0
    2.3063  -10.0533   30.0125 C   0  0  0  0  0  0  0  0  0  0  0  0
    1.8591   -6.8254   27.4685 N   0  0  0  0  0  0  0  0  0  0  0  0
   -0.2167  -12.1055   18.5568 C   0  0  0  0  0  0  0  0  0  0  0  0
   -2.0661  -10.6994   18.1916 C   0  0  0  0  0  0  0  0  0  0  0  0
    5.2703   -7.5691   27.1123 C   0  0  0  0  0  0  0  0  0  0  0  0
    1.6204   -9.9887   17.2935 C   0  0  0  0  0  0  0  0  0  0  0  0
    1.8931   -7.9265   16.2047 C   0  0  0  0  0  0  0  0  0  0  0  0
    2.4396   -9.0801   16.7132 C   0  0  0  0  0  0  0  0  0  0  0  0
   -0.2575   -8.6234   16.8582 C   0  0  0  0  0  0  0  0  0  0  0  0
    4.0614   -7.0367   27.0106 N   0  0  0  0  0  0  0  0  0  0  0  0
   -2.9133  -11.6279   18.7578 C   0  0  0  0  0  0  0  0  0  0  0  0
    4.5688  -10.1291   29.5758 C   0  0  0  0  0  0  0  0  0  0  0  0
    2.1008   -9.0410   29.1852 N   0  0  0  0  0  0  0  0  0  0  0  0
    3.4829  -10.5697   30.2091 N   0  0  0  0  0  0  0  0  0  0  0  0
   -0.3363   -6.1172   27.5628 C   0  0  0  0  0  0  0  0  0  0  0  0
    3.0331   -7.4400   27.6362 C   0  0  0  0  0  0  0  0  0  0  0  0
    5.4553   -8.5933   27.9644 C   0  0  0  0  0  0  0  0  0  0  0  0
   -2.3870  -12.8440   19.2512 C   0  0  0  0  0  0  0  0  0  0  0  0
    0.5331   -7.6964   16.2751 C   0  0  0  0  0  0  0  0  0  0  0  0
   -0.6740  -10.8737   18.0482 C   0  0  0  0  0  0  0  0  0  0  0  0
    5.6751  -10.5870   29.7637 O   0  0  0  0  0  0  0  0  0  0  0  0
    1.7612   -5.6483   26.7172 C   0  0  0  0  0  0  0  0  0  0  0  0
    0.2221   -9.8326   17.4055 C   0  0  0  0  0  0  0  0  0  0  0  0
    4.3850   -9.0730   28.6745 C   0  0  0  0  0  0  0  0  0  0  0  0
  1  7  4  0
  1 22  4  0
  2 17  4  0
  2 20  4  0
  2 28  4  0
  3  6  1  0
  3 19  1  0
  4 19  1  0
  4 26  1  0
  5 17  4  0
  5 18  4  0
  6 20  1  0
  6 26  1  0
  7 24  4  0
  8 15  4  0
  8 24  4  0
  9 14  4  0
  9 21  4  0
 10 12  4  0
 10 27  4  0
 11 12  4  0
 11 23  4  0
 13 23  4  0
 13 27  4  0
 14 20  4  0
 15 22  4  0
 16 18  4  0
 16 25  2  0
 16 28  4  0
 21 28  4  0
 24 27  1  0
M  END
$$$$

 Created by Python create_sdf_string function

 28 31  0  0  0  0  0  0  0  0999 V2000
   -1.0054  -13.0622   19.1198 C   0  0  0  0  0  0  0  0  0  0  0  0
    3.1478   -8.5360   28.5161 C   0  0  0  0  0  0  0  0  0  0  0  0
    0.5798   -7.1906   27.9330 C   0  0  0  0  0  0  0  0  0  0  0  0
    0.3978   -5.1561   26.6955 C   0  0  0  0  0  0  0  0  0  0  0  0
    2.3063  -10.0533   30.0125 C   0  0  0  0  0  0  0  0  0  0  0  0
    1.8591   -6.8254   27.4685 N   0  0  0  0  0  0  0  0  0  0  0  0
   -0.2167  -12.1055   18.5568 C   0  0  0  0  0  0  0  0  0  0  0  0
   -2.0661  -10.6994   18.1916 C   0  0  0  0  0  0  0  0  0  0  0  0
    5.2703   -7.5691   27.1123 C   0  0  0  0  0  0  0  0  0  0  0  0
    1.6204   -9.9887   17.2935 C   0  0  0  0  0  0  0  0  0  0  0  0
    1.8931   -7.9265   16.2047 C   0  0  0  0  0  0  0  0  0  0  0  0
    2.4396   -9.0801   16.7132 C   0  0  0  0  0  0  0  0  0  0  0  0
   -0.2575   -8.6234   16.8582 C   0  0  0  0  0  0  0  0  0  0  0  0
    4.0614   -7.0367   27.0106 N   0  0  0  0  0  0  0  0  0  0  0  0
   -2.9133  -11.6279   18.7578 C   0  0  0  0  0  0  0  0  0  0  0  0
    4.5688  -10.1291   29.5758 C   0  0  0  0  0  0  0  0  0  0  0  0
    2.1008   -9.0410   29.1852 N   0  0  0  0  0  0  0  0  0  0  0  0
    3.4829  -10.5697   30.2091 N   0  0  0  0  0  0  0  0  0  0  0  0
   -0.3363   -6.1172   27.5628 C   0  0  0  0  0  0  0  0  0  0  0  0
    3.0331   -7.4400   27.6362 C   0  0  0  0  0  0  0  0  0  0  0  0
    5.4553   -8.5933   27.9644 C   0  0  0  0  0  0  0  0  0  0  0  0
   -2.3870  -12.8440   19.2512 C   0  0  0  0  0  0  0  0  0  0  0  0
    0.5331   -7.6964   16.2751 C   0  0  0  0  0  0  0  0  0  0  0  0
   -0.6740  -10.8737   18.0482 C   0  0  0  0  0  0  0  0  0  0  0  0
    5.6751  -10.5870   29.7637 O   0  0  0  0  0  0  0  0  0  0  0  0
    1.7612   -5.6483   26.7172 C   0  0  0  0  0  0  0  0  0  0  0  0
    0.2221   -9.8326   17.4055 C   0  0  0  0  0  0  0  0  0  0  0  0
    4.3850   -9.0730   28.6745 C   0  0  0  0  0  0  0  0  0  0  0  0
  1  7  4  0
  1 22  4  0
  2 17  4  0
  2 20  4  0
  2 28  4  0
  3  6  1  0
  3 19  1  0
  4 19  1  0
  4 26  1  0
  5 17  4  0
  5 18  4  0
  6 20  1  0
  6 26  1  0
  7 24  4  0
  8 15  4  0
  8 24  4  0
  9 14  4  0
  9 21  4  0
 10 12  4  0
 10 27  4  0
 11 12  4  0
 11 23  4  0
 13 23  4  0
 13 27  4  0
 14 20  4  0
 15 22  4  0
 16 18  4  0
 16 25  2  0
 16 28  4  0
 21 28  4  0
 24 27  1  0
M  END
$$$$

 Created by Python create_sdf_string function

 28 31  0  0  0  0  0  0  0  0999 V2000
   -1.0054  -13.0622   19.1198 C   0  0  0  0  0  0  0  0  0  0  0  0
    3.1478   -8.5360   28.5161 C   0  0  0  0  0  0  0  0  0  0  0  0
    0.5798   -7.1906   27.9330 C   0  0  0  0  0  0  0  0  0  0  0  0
    0.3978   -5.1561   26.6955 C   0  0  0  0  0  0  0  0  0  0  0  0
    2.3063  -10.0533   30.0125 C   0  0  0  0  0  0  0  0  0  0  0  0
    1.8591   -6.8254   27.4685 N   0  0  0  0  0  0  0  0  0  0  0  0
   -0.2167  -12.1055   18.5568 C   0  0  0  0  0  0  0  0  0  0  0  0
   -2.0661  -10.6994   18.1916 C   0  0  0  0  0  0  0  0  0  0  0  0
    5.2703   -7.5691   27.1123 C   0  0  0  0  0  0  0  0  0  0  0  0
    1.6204   -9.9887   17.2935 C   0  0  0  0  0  0  0  0  0  0  0  0
    1.8931   -7.9265   16.2047 C   0  0  0  0  0  0  0  0  0  0  0  0
    2.4396   -9.0801   16.7132 C   0  0  0  0  0  0  0  0  0  0  0  0
   -0.2575   -8.6234   16.8582 C   0  0  0  0  0  0  0  0  0  0  0  0
    4.0614   -7.0367   27.0106 N   0  0  0  0  0  0  0  0  0  0  0  0
   -2.9133  -11.6279   18.7578 C   0  0  0  0  0  0  0  0  0  0  0  0
    4.5688  -10.1291   29.5758 C   0  0  0  0  0  0  0  0  0  0  0  0
    2.1008   -9.0410   29.1852 N   0  0  0  0  0  0  0  0  0  0  0  0
    3.4829  -10.5697   30.2091 N   0  0  0  0  0  0  0  0  0  0  0  0
   -0.3363   -6.1172   27.5628 C   0  0  0  0  0  0  0  0  0  0  0  0
    3.0331   -7.4400   27.6362 C   0  0  0  0  0  0  0  0  0  0  0  0
    5.4553   -8.5933   27.9644 C   0  0  0  0  0  0  0  0  0  0  0  0
   -2.3870  -12.8440   19.2512 C   0  0  0  0  0  0  0  0  0  0  0  0
    0.5331   -7.6964   16.2751 C   0  0  0  0  0  0  0  0  0  0  0  0
   -0.6740  -10.8737   18.0482 C   0  0  0  0  0  0  0  0  0  0  0  0
    5.6751  -10.5870   29.7637 O   0  0  0  0  0  0  0  0  0  0  0  0
    1.7612   -5.6483   26.7172 C   0  0  0  0  0  0  0  0  0  0  0  0
    0.2221   -9.8326   17.4055 C   0  0  0  0  0  0  0  0  0  0  0  0
    4.3850   -9.0730   28.6745 C   0  0  0  0  0  0  0  0  0  0  0  0
  1  7  4  0
  1 22  4  0
  2 17  4  0
  2 20  4  0
  2 28  4  0
  3  6  1  0
  3 19  1  0
  4 19  1  0
  4 26  1  0
  5 17  4  0
  5 18  4  0
  6 20  1  0
  6 26  1  0
  7 24  4  0
  8 15  4  0
  8 24  4  0
  9 14  4  0
  9 21  4  0
 10 12  4  0
 10 27  4  0
 11 12  4  0
 11 23  4  0
 13 23  4  0
 13 27  4  0
 14 20  4  0
 15 22  4  0
 16 18  4  0
 16 25  2  0
 16 28  4  0
 21 28  4  0
 24 27  1  0
M  END
$$$$

 Created by Python create_sdf_string function

 28 31  0  0  0  0  0  0  0  0999 V2000
   -1.0054  -13.0622   19.1198 C   0  0  0  0  0  0  0  0  0  0  0  0
    3.1478   -8.5360   28.5161 C   0  0  0  0  0  0  0  0  0  0  0  0
    0.5798   -7.1906   27.9330 C   0  0  0  0  0  0  0  0  0  0  0  0
    0.3978   -5.1561   26.6955 C   0  0  0  0  0  0  0  0  0  0  0  0
    2.3063  -10.0533   30.0125 C   0  0  0  0  0  0  0  0  0  0  0  0
    1.8591   -6.8254   27.4685 N   0  0  0  0  0  0  0  0  0  0  0  0
   -0.2167  -12.1055   18.5568 C   0  0  0  0  0  0  0  0  0  0  0  0
   -2.0661  -10.6994   18.1916 C   0  0  0  0  0  0  0  0  0  0  0  0
    5.2703   -7.5691   27.1123 C   0  0  0  0  0  0  0  0  0  0  0  0
    1.6204   -9.9887   17.2935 C   0  0  0  0  0  0  0  0  0  0  0  0
    1.8931   -7.9265   16.2047 C   0  0  0  0  0  0  0  0  0  0  0  0
    2.4396   -9.0801   16.7132 C   0  0  0  0  0  0  0  0  0  0  0  0
   -0.2575   -8.6234   16.8582 C   0  0  0  0  0  0  0  0  0  0  0  0
    4.0614   -7.0367   27.0106 N   0  0  0  0  0  0  0  0  0  0  0  0
   -2.9133  -11.6279   18.7578 C   0  0  0  0  0  0  0  0  0  0  0  0
    4.5688  -10.1291   29.5758 C   0  0  0  0  0  0  0  0  0  0  0  0
    2.1008   -9.0410   29.1852 N   0  0  0  0  0  0  0  0  0  0  0  0
    3.4829  -10.5697   30.2091 N   0  0  0  0  0  0  0  0  0  0  0  0
   -0.3363   -6.1172   27.5628 C   0  0  0  0  0  0  0  0  0  0  0  0
    3.0331   -7.4400   27.6362 C   0  0  0  0  0  0  0  0  0  0  0  0
    5.4553   -8.5933   27.9644 C   0  0  0  0  0  0  0  0  0  0  0  0
   -2.3870  -12.8440   19.2512 C   0  0  0  0  0  0  0  0  0  0  0  0
    0.5331   -7.6964   16.2751 C   0  0  0  0  0  0  0  0  0  0  0  0
   -0.6740  -10.8737   18.0482 C   0  0  0  0  0  0  0  0  0  0  0  0
    5.6751  -10.5870   29.7637 O   0  0  0  0  0  0  0  0  0  0  0  0
    1.7612   -5.6483   26.7172 C   0  0  0  0  0  0  0  0  0  0  0  0
    0.2221   -9.8326   17.4055 C   0  0  0  0  0  0  0  0  0  0  0  0
    4.3850   -9.0730   28.6745 C   0  0  0  0  0  0  0  0  0  0  0  0
  1  7  4  0
  1 22  4  0
  2 17  4  0
  2 20  4  0
  2 28  4  0
  3  6  1  0
  3 19  1  0
  4 19  1  0
  4 26  1  0
  5 17  4  0
  5 18  4  0
  6 20  1  0
  6 26  1  0
  7 24  4  0
  8 15  4  0
  8 24  4  0
  9 14  4  0
  9 21  4  0
 10 12  4  0
 10 27  4  0
 11 12  4  0
 11 23  4  0
 13 23  4  0
 13 27  4  0
 14 20  4  0
 15 22  4  0
 16 18  4  0
 16 25  2  0
 16 28  4  0
 21 28  4  0
 24 27  1  0
M  END
$$$$

 Created by Python create_sdf_string function

 28 31  0  0  0  0  0  0  0  0999 V2000
   -1.0054  -13.0622   19.1198 C   0  0  0  0  0  0  0  0  0  0  0  0
    3.1478   -8.5360   28.5161 C   0  0  0  0  0  0  0  0  0  0  0  0
    0.5798   -7.1906   27.9330 C   0  0  0  0  0  0  0  0  0  0  0  0
    0.3978   -5.1561   26.6955 C   0  0  0  0  0  0  0  0  0  0  0  0
    2.3063  -10.0533   30.0125 C   0  0  0  0  0  0  0  0  0  0  0  0
    1.8591   -6.8254   27.4685 N   0  0  0  0  0  0  0  0  0  0  0  0
   -0.2167  -12.1055   18.5568 C   0  0  0  0  0  0  0  0  0  0  0  0
   -2.0661  -10.6994   18.1916 C   0  0  0  0  0  0  0  0  0  0  0  0
    5.2703   -7.5691   27.1123 C   0  0  0  0  0  0  0  0  0  0  0  0
    1.6204   -9.9887   17.2935 C   0  0  0  0  0  0  0  0  0  0  0  0
    1.8931   -7.9265   16.2047 C   0  0  0  0  0  0  0  0  0  0  0  0
    2.4396   -9.0801   16.7132 C   0  0  0  0  0  0  0  0  0  0  0  0
   -0.2575   -8.6234   16.8582 C   0  0  0  0  0  0  0  0  0  0  0  0
    4.0614   -7.0367   27.0106 N   0  0  0  0  0  0  0  0  0  0  0  0
   -2.9133  -11.6279   18.7578 C   0  0  0  0  0  0  0  0  0  0  0  0
    4.5688  -10.1291   29.5758 C   0  0  0  0  0  0  0  0  0  0  0  0
    2.1008   -9.0410   29.1852 N   0  0  0  0  0  0  0  0  0  0  0  0
    3.4829  -10.5697   30.2091 N   0  0  0  0  0  0  0  0  0  0  0  0
   -0.3363   -6.1172   27.5628 C   0  0  0  0  0  0  0  0  0  0  0  0
    3.0331   -7.4400   27.6362 C   0  0  0  0  0  0  0  0  0  0  0  0
    5.4553   -8.5933   27.9644 C   0  0  0  0  0  0  0  0  0  0  0  0
   -2.3870  -12.8440   19.2512 C   0  0  0  0  0  0  0  0  0  0  0  0
    0.5331   -7.6964   16.2751 C   0  0  0  0  0  0  0  0  0  0  0  0
   -0.6740  -10.8737   18.0482 C   0  0  0  0  0  0  0  0  0  0  0  0
    5.6751  -10.5870   29.7637 O   0  0  0  0  0  0  0  0  0  0  0  0
    1.7612   -5.6483   26.7172 C   0  0  0  0  0  0  0  0  0  0  0  0
    0.2221   -9.8326   17.4055 C   0  0  0  0  0  0  0  0  0  0  0  0
    4.3850   -9.0730   28.6745 C   0  0  0  0  0  0  0  0  0  0  0  0
  1  7  4  0
  1 22  4  0
  2 17  4  0
  2 20  4  0
  2 28  4  0
  3  6  1  0
  3 19  1  0
  4 19  1  0
  4 26  1  0
  5 17  4  0
  5 18  4  0
  6 20  1  0
  6 26  1  0
  7 24  4  0
  8 15  4  0
  8 24  4  0
  9 14  4  0
  9 21  4  0
 10 12  4  0
 10 27  4  0
 11 12  4  0
 11 23  4  0
 13 23  4  0
 13 27  4  0
 14 20  4  0
 15 22  4  0
 16 18  4  0
 16 25  2  0
 16 28  4  0
 21 28  4  0
 24 27  1  0
M  END
$$$$

 Created by Python create_sdf_string function

 28 31  0  0  0  0  0  0  0  0999 V2000
   -1.0054  -13.0622   19.1198 C   0  0  0  0  0  0  0  0  0  0  0  0
    3.1478   -8.5360   28.5161 C   0  0  0  0  0  0  0  0  0  0  0  0
    0.5798   -7.1906   27.9330 C   0  0  0  0  0  0  0  0  0  0  0  0
    0.3978   -5.1561   26.6955 C   0  0  0  0  0  0  0  0  0  0  0  0
    2.3063  -10.0533   30.0125 C   0  0  0  0  0  0  0  0  0  0  0  0
    1.8591   -6.8254   27.4685 N   0  0  0  0  0  0  0  0  0  0  0  0
   -0.2167  -12.1055   18.5568 C   0  0  0  0  0  0  0  0  0  0  0  0
   -2.0661  -10.6994   18.1916 C   0  0  0  0  0  0  0  0  0  0  0  0
    5.2703   -7.5691   27.1123 C   0  0  0  0  0  0  0  0  0  0  0  0
    1.6204   -9.9887   17.2935 C   0  0  0  0  0  0  0  0  0  0  0  0
    1.8931   -7.9265   16.2047 C   0  0  0  0  0  0  0  0  0  0  0  0
    2.4396   -9.0801   16.7132 C   0  0  0  0  0  0  0  0  0  0  0  0
   -0.2575   -8.6234   16.8582 C   0  0  0  0  0  0  0  0  0  0  0  0
    4.0614   -7.0367   27.0106 N   0  0  0  0  0  0  0  0  0  0  0  0
   -2.9133  -11.6279   18.7578 C   0  0  0  0  0  0  0  0  0  0  0  0
    4.5688  -10.1291   29.5758 C   0  0  0  0  0  0  0  0  0  0  0  0
    2.1008   -9.0410   29.1852 N   0  0  0  0  0  0  0  0  0  0  0  0
    3.4829  -10.5697   30.2091 N   0  0  0  0  0  0  0  0  0  0  0  0
   -0.3363   -6.1172   27.5628 C   0  0  0  0  0  0  0  0  0  0  0  0
    3.0331   -7.4400   27.6362 C   0  0  0  0  0  0  0  0  0  0  0  0
    5.4553   -8.5933   27.9644 C   0  0  0  0  0  0  0  0  0  0  0  0
   -2.3870  -12.8440   19.2512 C   0  0  0  0  0  0  0  0  0  0  0  0
    0.5331   -7.6964   16.2751 C   0  0  0  0  0  0  0  0  0  0  0  0
   -0.6740  -10.8737   18.0482 C   0  0  0  0  0  0  0  0  0  0  0  0
    5.6751  -10.5870   29.7637 O   0  0  0  0  0  0  0  0  0  0  0  0
    1.7612   -5.6483   26.7172 C   0  0  0  0  0  0  0  0  0  0  0  0
    0.2221   -9.8326   17.4055 C   0  0  0  0  0  0  0  0  0  0  0  0
    4.3850   -9.0730   28.6745 C   0  0  0  0  0  0  0  0  0  0  0  0
  1  7  4  0
  1 22  4  0
  2 17  4  0
  2 20  4  0
  2 28  4  0
  3  6  1  0
  3 19  1  0
  4 19  1  0
  4 26  1  0
  5 17  4  0
  5 18  4  0
  6 20  1  0
  6 26  1  0
  7 24  4  0
  8 15  4  0
  8 24  4  0
  9 14  4  0
  9 21  4  0
 10 12  4  0
 10 27  4  0
 11 12  4  0
 11 23  4  0
 13 23  4  0
 13 27  4  0
 14 20  4  0
 15 22  4  0
 16 18  4  0
 16 25  2  0
 16 28  4  0
 21 28  4  0
 24 27  1  0
M  END
$$$$

 Created by Python create_sdf_string function

 28 31  0  0  0  0  0  0  0  0999 V2000
   -1.0054  -13.0622   19.1198 C   0  0  0  0  0  0  0  0  0  0  0  0
    3.1478   -8.5360   28.5161 C   0  0  0  0  0  0  0  0  0  0  0  0
    0.5798   -7.1906   27.9330 C   0  0  0  0  0  0  0  0  0  0  0  0
    0.3978   -5.1561   26.6955 C   0  0  0  0  0  0  0  0  0  0  0  0
    2.3063  -10.0533   30.0125 C   0  0  0  0  0  0  0  0  0  0  0  0
    1.8591   -6.8254   27.4685 N   0  0  0  0  0  0  0  0  0  0  0  0
   -0.2167  -12.1055   18.5568 C   0  0  0  0  0  0  0  0  0  0  0  0
   -2.0661  -10.6994   18.1916 C   0  0  0  0  0  0  0  0  0  0  0  0
    5.2703   -7.5691   27.1123 C   0  0  0  0  0  0  0  0  0  0  0  0
    1.6204   -9.9887   17.2935 C   0  0  0  0  0  0  0  0  0  0  0  0
    1.8931   -7.9265   16.2047 C   0  0  0  0  0  0  0  0  0  0  0  0
    2.4396   -9.0801   16.7132 C   0  0  0  0  0  0  0  0  0  0  0  0
   -0.2575   -8.6234   16.8582 C   0  0  0  0  0  0  0  0  0  0  0  0
    4.0614   -7.0367   27.0106 N   0  0  0  0  0  0  0  0  0  0  0  0
   -2.9133  -11.6279   18.7578 C   0  0  0  0  0  0  0  0  0  0  0  0
    4.5688  -10.1291   29.5758 C   0  0  0  0  0  0  0  0  0  0  0  0
    2.1008   -9.0410   29.1852 N   0  0  0  0  0  0  0  0  0  0  0  0
    3.4829  -10.5697   30.2091 N   0  0  0  0  0  0  0  0  0  0  0  0
   -0.3363   -6.1172   27.5628 C   0  0  0  0  0  0  0  0  0  0  0  0
    3.0331   -7.4400   27.6362 C   0  0  0  0  0  0  0  0  0  0  0  0
    5.4553   -8.5933   27.9644 C   0  0  0  0  0  0  0  0  0  0  0  0
   -2.3870  -12.8440   19.2512 C   0  0  0  0  0  0  0  0  0  0  0  0
    0.5331   -7.6964   16.2751 C   0  0  0  0  0  0  0  0  0  0  0  0
   -0.6740  -10.8737   18.0482 C   0  0  0  0  0  0  0  0  0  0  0  0
    5.6751  -10.5870   29.7637 O   0  0  0  0  0  0  0  0  0  0  0  0
    1.7612   -5.6483   26.7172 C   0  0  0  0  0  0  0  0  0  0  0  0
    0.2221   -9.8326   17.4055 C   0  0  0  0  0  0  0  0  0  0  0  0
    4.3850   -9.0730   28.6745 C   0  0  0  0  0  0  0  0  0  0  0  0
  1  7  4  0
  1 22  4  0
  2 17  4  0
  2 20  4  0
  2 28  4  0
  3  6  1  0
  3 19  1  0
  4 19  1  0
  4 26  1  0
  5 17  4  0
  5 18  4  0
  6 20  1  0
  6 26  1  0
  7 24  4  0
  8 15  4  0
  8 24  4  0
  9 14  4  0
  9 21  4  0
 10 12  4  0
 10 27  4  0
 11 12  4  0
 11 23  4  0
 13 23  4  0
 13 27  4  0
 14 20  4  0
 15 22  4  0
 16 18  4  0
 16 25  2  0
 16 28  4  0
 21 28  4  0
 24 27  1  0
M  END
$$$$

 Created by Python create_sdf_string function

 28 31  0  0  0  0  0  0  0  0999 V2000
   -1.0054  -13.0622   19.1198 C   0  0  0  0  0  0  0  0  0  0  0  0
    3.1478   -8.5360   28.5161 C   0  0  0  0  0  0  0  0  0  0  0  0
    0.5798   -7.1906   27.9330 C   0  0  0  0  0  0  0  0  0  0  0  0
    0.3978   -5.1561   26.6955 C   0  0  0  0  0  0  0  0  0  0  0  0
    2.3063  -10.0533   30.0125 C   0  0  0  0  0  0  0  0  0  0  0  0
    1.8591   -6.8254   27.4685 N   0  0  0  0  0  0  0  0  0  0  0  0
   -0.2167  -12.1055   18.5568 C   0  0  0  0  0  0  0  0  0  0  0  0
   -2.0661  -10.6994   18.1916 C   0  0  0  0  0  0  0  0  0  0  0  0
    5.2703   -7.5691   27.1123 C   0  0  0  0  0  0  0  0  0  0  0  0
    1.6204   -9.9887   17.2935 C   0  0  0  0  0  0  0  0  0  0  0  0
    1.8931   -7.9265   16.2047 C   0  0  0  0  0  0  0  0  0  0  0  0
    2.4396   -9.0801   16.7132 C   0  0  0  0  0  0  0  0  0  0  0  0
   -0.2575   -8.6234   16.8582 C   0  0  0  0  0  0  0  0  0  0  0  0
    4.0614   -7.0367   27.0106 N   0  0  0  0  0  0  0  0  0  0  0  0
   -2.9133  -11.6279   18.7578 C   0  0  0  0  0  0  0  0  0  0  0  0
    4.5688  -10.1291   29.5758 C   0  0  0  0  0  0  0  0  0  0  0  0
    2.1008   -9.0410   29.1852 N   0  0  0  0  0  0  0  0  0  0  0  0
    3.4829  -10.5697   30.2091 N   0  0  0  0  0  0  0  0  0  0  0  0
   -0.3363   -6.1172   27.5628 C   0  0  0  0  0  0  0  0  0  0  0  0
    3.0331   -7.4400   27.6362 C   0  0  0  0  0  0  0  0  0  0  0  0
    5.4553   -8.5933   27.9644 C   0  0  0  0  0  0  0  0  0  0  0  0
   -2.3870  -12.8440   19.2512 C   0  0  0  0  0  0  0  0  0  0  0  0
    0.5331   -7.6964   16.2751 C   0  0  0  0  0  0  0  0  0  0  0  0
   -0.6740  -10.8737   18.0482 C   0  0  0  0  0  0  0  0  0  0  0  0
    5.6751  -10.5870   29.7637 O   0  0  0  0  0  0  0  0  0  0  0  0
    1.7612   -5.6483   26.7172 C   0  0  0  0  0  0  0  0  0  0  0  0
    0.2221   -9.8326   17.4055 C   0  0  0  0  0  0  0  0  0  0  0  0
    4.3850   -9.0730   28.6745 C   0  0  0  0  0  0  0  0  0  0  0  0
  1  7  4  0
  1 22  4  0
  2 17  4  0
  2 20  4  0
  2 28  4  0
  3  6  1  0
  3 19  1  0
  4 19  1  0
  4 26  1  0
  5 17  4  0
  5 18  4  0
  6 20  1  0
  6 26  1  0
  7 24  4  0
  8 15  4  0
  8 24  4  0
  9 14  4  0
  9 21  4  0
 10 12  4  0
 10 27  4  0
 11 12  4  0
 11 23  4  0
 13 23  4  0
 13 27  4  0
 14 20  4  0
 15 22  4  0
 16 18  4  0
 16 25  2  0
 16 28  4  0
 21 28  4  0
 24 27  1  0
M  END
$$$$

 Created by Python create_sdf_string function

 28 31  0  0  0  0  0  0  0  0999 V2000
   -1.0054  -13.0622   19.1198 C   0  0  0  0  0  0  0  0  0  0  0  0
    3.1478   -8.5360   28.5161 C   0  0  0  0  0  0  0  0  0  0  0  0
    0.5798   -7.1906   27.9330 C   0  0  0  0  0  0  0  0  0  0  0  0
    0.3978   -5.1561   26.6955 C   0  0  0  0  0  0  0  0  0  0  0  0
    2.3063  -10.0533   30.0125 C   0  0  0  0  0  0  0  0  0  0  0  0
    1.8591   -6.8254   27.4685 N   0  0  0  0  0  0  0  0  0  0  0  0
   -0.2167  -12.1055   18.5568 C   0  0  0  0  0  0  0  0  0  0  0  0
   -2.0661  -10.6994   18.1916 C   0  0  0  0  0  0  0  0  0  0  0  0
    5.2703   -7.5691   27.1123 C   0  0  0  0  0  0  0  0  0  0  0  0
    1.6204   -9.9887   17.2935 C   0  0  0  0  0  0  0  0  0  0  0  0
    1.8931   -7.9265   16.2047 C   0  0  0  0  0  0  0  0  0  0  0  0
    2.4396   -9.0801   16.7132 C   0  0  0  0  0  0  0  0  0  0  0  0
   -0.2575   -8.6234   16.8582 C   0  0  0  0  0  0  0  0  0  0  0  0
    4.0614   -7.0367   27.0106 N   0  0  0  0  0  0  0  0  0  0  0  0
   -2.9133  -11.6279   18.7578 C   0  0  0  0  0  0  0  0  0  0  0  0
    4.5688  -10.1291   29.5758 C   0  0  0  0  0  0  0  0  0  0  0  0
    2.1008   -9.0410   29.1852 N   0  0  0  0  0  0  0  0  0  0  0  0
    3.4829  -10.5697   30.2091 N   0  0  0  0  0  0  0  0  0  0  0  0
   -0.3363   -6.1172   27.5628 C   0  0  0  0  0  0  0  0  0  0  0  0
    3.0331   -7.4400   27.6362 C   0  0  0  0  0  0  0  0  0  0  0  0
    5.4553   -8.5933   27.9644 C   0  0  0  0  0  0  0  0  0  0  0  0
   -2.3870  -12.8440   19.2512 C   0  0  0  0  0  0  0  0  0  0  0  0
    0.5331   -7.6964   16.2751 C   0  0  0  0  0  0  0  0  0  0  0  0
   -0.6740  -10.8737   18.0482 C   0  0  0  0  0  0  0  0  0  0  0  0
    5.6751  -10.5870   29.7637 O   0  0  0  0  0  0  0  0  0  0  0  0
    1.7612   -5.6483   26.7172 C   0  0  0  0  0  0  0  0  0  0  0  0
    0.2221   -9.8326   17.4055 C   0  0  0  0  0  0  0  0  0  0  0  0
    4.3850   -9.0730   28.6745 C   0  0  0  0  0  0  0  0  0  0  0  0
  1  7  4  0
  1 22  4  0
  2 17  4  0
  2 20  4  0
  2 28  4  0
  3  6  1  0
  3 19  1  0
  4 19  1  0
  4 26  1  0
  5 17  4  0
  5 18  4  0
  6 20  1  0
  6 26  1  0
  7 24  4  0
  8 15  4  0
  8 24  4  0
  9 14  4  0
  9 21  4  0
 10 12  4  0
 10 27  4  0
 11 12  4  0
 11 23  4  0
 13 23  4  0
 13 27  4  0
 14 20  4  0
 15 22  4  0
 16 18  4  0
 16 25  2  0
 16 28  4  0
 21 28  4  0
 24 27  1  0
M  END
$$$$

 Created by Python create_sdf_string function

 28 31  0  0  0  0  0  0  0  0999 V2000
   -1.0054  -13.0622   19.1198 C   0  0  0  0  0  0  0  0  0  0  0  0
    3.1478   -8.5360   28.5161 C   0  0  0  0  0  0  0  0  0  0  0  0
    0.5798   -7.1906   27.9330 C   0  0  0  0  0  0  0  0  0  0  0  0
    0.3978   -5.1561   26.6955 C   0  0  0  0  0  0  0  0  0  0  0  0
    2.3063  -10.0533   30.0125 C   0  0  0  0  0  0  0  0  0  0  0  0
    1.8591   -6.8254   27.4685 N   0  0  0  0  0  0  0  0  0  0  0  0
   -0.2167  -12.1055   18.5568 C   0  0  0  0  0  0  0  0  0  0  0  0
   -2.0661  -10.6994   18.1916 C   0  0  0  0  0  0  0  0  0  0  0  0
    5.2703   -7.5691   27.1123 C   0  0  0  0  0  0  0  0  0  0  0  0
    1.6204   -9.9887   17.2935 C   0  0  0  0  0  0  0  0  0  0  0  0
    1.8931   -7.9265   16.2047 C   0  0  0  0  0  0  0  0  0  0  0  0
    2.4396   -9.0801   16.7132 C   0  0  0  0  0  0  0  0  0  0  0  0
   -0.2575   -8.6234   16.8582 C   0  0  0  0  0  0  0  0  0  0  0  0
    4.0614   -7.0367   27.0106 N   0  0  0  0  0  0  0  0  0  0  0  0
   -2.9133  -11.6279   18.7578 C   0  0  0  0  0  0  0  0  0  0  0  0
    4.5688  -10.1291   29.5758 C   0  0  0  0  0  0  0  0  0  0  0  0
    2.1008   -9.0410   29.1852 N   0  0  0  0  0  0  0  0  0  0  0  0
    3.4829  -10.5697   30.2091 N   0  0  0  0  0  0  0  0  0  0  0  0
   -0.3363   -6.1172   27.5628 C   0  0  0  0  0  0  0  0  0  0  0  0
    3.0331   -7.4400   27.6362 C   0  0  0  0  0  0  0  0  0  0  0  0
    5.4553   -8.5933   27.9644 C   0  0  0  0  0  0  0  0  0  0  0  0
   -2.3870  -12.8440   19.2512 C   0  0  0  0  0  0  0  0  0  0  0  0
    0.5331   -7.6964   16.2751 C   0  0  0  0  0  0  0  0  0  0  0  0
   -0.6740  -10.8737   18.0482 C   0  0  0  0  0  0  0  0  0  0  0  0
    5.6751  -10.5870   29.7637 O   0  0  0  0  0  0  0  0  0  0  0  0
    1.7612   -5.6483   26.7172 C   0  0  0  0  0  0  0  0  0  0  0  0
    0.2221   -9.8326   17.4055 C   0  0  0  0  0  0  0  0  0  0  0  0
    4.3850   -9.0730   28.6745 C   0  0  0  0  0  0  0  0  0  0  0  0
  1  7  4  0
  1 22  4  0
  2 17  4  0
  2 20  4  0
  2 28  4  0
  3  6  1  0
  3 19  1  0
  4 19  1  0
  4 26  1  0
  5 17  4  0
  5 18  4  0
  6 20  1  0
  6 26  1  0
  7 24  4  0
  8 15  4  0
  8 24  4  0
  9 14  4  0
  9 21  4  0
 10 12  4  0
 10 27  4  0
 11 12  4  0
 11 23  4  0
 13 23  4  0
 13 27  4  0
 14 20  4  0
 15 22  4  0
 16 18  4  0
 16 25  2  0
 16 28  4  0
 21 28  4  0
 24 27  1  0
M  END
$$$$

 Created by Python create_sdf_string function

 28 31  0  0  0  0  0  0  0  0999 V2000
   -1.0054  -13.0622   19.1198 C   0  0  0  0  0  0  0  0  0  0  0  0
    3.1478   -8.5360   28.5161 C   0  0  0  0  0  0  0  0  0  0  0  0
    0.5798   -7.1906   27.9330 C   0  0  0  0  0  0  0  0  0  0  0  0
    0.3978   -5.1561   26.6955 C   0  0  0  0  0  0  0  0  0  0  0  0
    2.3063  -10.0533   30.0125 C   0  0  0  0  0  0  0  0  0  0  0  0
    1.8591   -6.8254   27.4685 N   0  0  0  0  0  0  0  0  0  0  0  0
   -0.2167  -12.1055   18.5568 C   0  0  0  0  0  0  0  0  0  0  0  0
   -2.0661  -10.6994   18.1916 C   0  0  0  0  0  0  0  0  0  0  0  0
    5.2703   -7.5691   27.1123 C   0  0  0  0  0  0  0  0  0  0  0  0
    1.6204   -9.9887   17.2935 C   0  0  0  0  0  0  0  0  0  0  0  0
    1.8931   -7.9265   16.2047 C   0  0  0  0  0  0  0  0  0  0  0  0
    2.4396   -9.0801   16.7132 C   0  0  0  0  0  0  0  0  0  0  0  0
   -0.2575   -8.6234   16.8582 C   0  0  0  0  0  0  0  0  0  0  0  0
    4.0614   -7.0367   27.0106 N   0  0  0  0  0  0  0  0  0  0  0  0
   -2.9133  -11.6279   18.7578 C   0  0  0  0  0  0  0  0  0  0  0  0
    4.5688  -10.1291   29.5758 C   0  0  0  0  0  0  0  0  0  0  0  0
    2.1008   -9.0410   29.1852 N   0  0  0  0  0  0  0  0  0  0  0  0
    3.4829  -10.5697   30.2091 N   0  0  0  0  0  0  0  0  0  0  0  0
   -0.3363   -6.1172   27.5628 C   0  0  0  0  0  0  0  0  0  0  0  0
    3.0331   -7.4400   27.6362 C   0  0  0  0  0  0  0  0  0  0  0  0
    5.4553   -8.5933   27.9644 C   0  0  0  0  0  0  0  0  0  0  0  0
   -2.3870  -12.8440   19.2512 C   0  0  0  0  0  0  0  0  0  0  0  0
    0.5331   -7.6964   16.2751 C   0  0  0  0  0  0  0  0  0  0  0  0
   -0.6740  -10.8737   18.0482 C   0  0  0  0  0  0  0  0  0  0  0  0
    5.6751  -10.5870   29.7637 O   0  0  0  0  0  0  0  0  0  0  0  0
    1.7612   -5.6483   26.7172 C   0  0  0  0  0  0  0  0  0  0  0  0
    0.2221   -9.8326   17.4055 C   0  0  0  0  0  0  0  0  0  0  0  0
    4.3850   -9.0730   28.6745 C   0  0  0  0  0  0  0  0  0  0  0  0
  1  7  4  0
  1 22  4  0
  2 17  4  0
  2 20  4  0
  2 28  4  0
  3  6  1  0
  3 19  1  0
  4 19  1  0
  4 26  1  0
  5 17  4  0
  5 18  4  0
  6 20  1  0
  6 26  1  0
  7 24  4  0
  8 15  4  0
  8 24  4  0
  9 14  4  0
  9 21  4  0
 10 12  4  0
 10 27  4  0
 11 12  4  0
 11 23  4  0
 13 23  4  0
 13 27  4  0
 14 20  4  0
 15 22  4  0
 16 18  4  0
 16 25  2  0
 16 28  4  0
 21 28  4  0
 24 27  1  0
M  END
$$$$

 Created by Python create_sdf_string function

 28 31  0  0  0  0  0  0  0  0999 V2000
   -1.0054  -13.0622   19.1198 C   0  0  0  0  0  0  0  0  0  0  0  0
    3.1478   -8.5360   28.5161 C   0  0  0  0  0  0  0  0  0  0  0  0
    0.5798   -7.1906   27.9330 C   0  0  0  0  0  0  0  0  0  0  0  0
    0.3978   -5.1561   26.6955 C   0  0  0  0  0  0  0  0  0  0  0  0
    2.3063  -10.0533   30.0125 C   0  0  0  0  0  0  0  0  0  0  0  0
    1.8591   -6.8254   27.4685 N   0  0  0  0  0  0  0  0  0  0  0  0
   -0.2167  -12.1055   18.5568 C   0  0  0  0  0  0  0  0  0  0  0  0
   -2.0661  -10.6994   18.1916 C   0  0  0  0  0  0  0  0  0  0  0  0
    5.2703   -7.5691   27.1123 C   0  0  0  0  0  0  0  0  0  0  0  0
    1.6204   -9.9887   17.2935 C   0  0  0  0  0  0  0  0  0  0  0  0
    1.8931   -7.9265   16.2047 C   0  0  0  0  0  0  0  0  0  0  0  0
    2.4396   -9.0801   16.7132 C   0  0  0  0  0  0  0  0  0  0  0  0
   -0.2575   -8.6234   16.8582 C   0  0  0  0  0  0  0  0  0  0  0  0
    4.0614   -7.0367   27.0106 N   0  0  0  0  0  0  0  0  0  0  0  0
   -2.9133  -11.6279   18.7578 C   0  0  0  0  0  0  0  0  0  0  0  0
    4.5688  -10.1291   29.5758 C   0  0  0  0  0  0  0  0  0  0  0  0
    2.1008   -9.0410   29.1852 N   0  0  0  0  0  0  0  0  0  0  0  0
    3.4829  -10.5697   30.2091 N   0  0  0  0  0  0  0  0  0  0  0  0
   -0.3363   -6.1172   27.5628 C   0  0  0  0  0  0  0  0  0  0  0  0
    3.0331   -7.4400   27.6362 C   0  0  0  0  0  0  0  0  0  0  0  0
    5.4553   -8.5933   27.9644 C   0  0  0  0  0  0  0  0  0  0  0  0
   -2.3870  -12.8440   19.2512 C   0  0  0  0  0  0  0  0  0  0  0  0
    0.5331   -7.6964   16.2751 C   0  0  0  0  0  0  0  0  0  0  0  0
   -0.6740  -10.8737   18.0482 C   0  0  0  0  0  0  0  0  0  0  0  0
    5.6751  -10.5870   29.7637 O   0  0  0  0  0  0  0  0  0  0  0  0
    1.7612   -5.6483   26.7172 C   0  0  0  0  0  0  0  0  0  0  0  0
    0.2221   -9.8326   17.4055 C   0  0  0  0  0  0  0  0  0  0  0  0
    4.3850   -9.0730   28.6745 C   0  0  0  0  0  0  0  0  0  0  0  0
  1  7  4  0
  1 22  4  0
  2 17  4  0
  2 20  4  0
  2 28  4  0
  3  6  1  0
  3 19  1  0
  4 19  1  0
  4 26  1  0
  5 17  4  0
  5 18  4  0
  6 20  1  0
  6 26  1  0
  7 24  4  0
  8 15  4  0
  8 24  4  0
  9 14  4  0
  9 21  4  0
 10 12  4  0
 10 27  4  0
 11 12  4  0
 11 23  4  0
 13 23  4  0
 13 27  4  0
 14 20  4  0
 15 22  4  0
 16 18  4  0
 16 25  2  0
 16 28  4  0
 21 28  4  0
 24 27  1  0
M  END
$$$$

 Created by Python create_sdf_string function

 28 31  0  0  0  0  0  0  0  0999 V2000
   -1.0054  -13.0622   19.1198 C   0  0  0  0  0  0  0  0  0  0  0  0
    3.1478   -8.5360   28.5161 C   0  0  0  0  0  0  0  0  0  0  0  0
    0.5798   -7.1906   27.9330 C   0  0  0  0  0  0  0  0  0  0  0  0
    0.3978   -5.1561   26.6955 C   0  0  0  0  0  0  0  0  0  0  0  0
    2.3063  -10.0533   30.0125 C   0  0  0  0  0  0  0  0  0  0  0  0
    1.8591   -6.8254   27.4685 N   0  0  0  0  0  0  0  0  0  0  0  0
   -0.2167  -12.1055   18.5568 C   0  0  0  0  0  0  0  0  0  0  0  0
   -2.0661  -10.6994   18.1916 C   0  0  0  0  0  0  0  0  0  0  0  0
    5.2703   -7.5691   27.1123 C   0  0  0  0  0  0  0  0  0  0  0  0
    1.6204   -9.9887   17.2935 C   0  0  0  0  0  0  0  0  0  0  0  0
    1.8931   -7.9265   16.2047 C   0  0  0  0  0  0  0  0  0  0  0  0
    2.4396   -9.0801   16.7132 C   0  0  0  0  0  0  0  0  0  0  0  0
   -0.2575   -8.6234   16.8582 C   0  0  0  0  0  0  0  0  0  0  0  0
    4.0614   -7.0367   27.0106 N   0  0  0  0  0  0  0  0  0  0  0  0
   -2.9133  -11.6279   18.7578 C   0  0  0  0  0  0  0  0  0  0  0  0
    4.5688  -10.1291   29.5758 C   0  0  0  0  0  0  0  0  0  0  0  0
    2.1008   -9.0410   29.1852 N   0  0  0  0  0  0  0  0  0  0  0  0
    3.4829  -10.5697   30.2091 N   0  0  0  0  0  0  0  0  0  0  0  0
   -0.3363   -6.1172   27.5628 C   0  0  0  0  0  0  0  0  0  0  0  0
    3.0331   -7.4400   27.6362 C   0  0  0  0  0  0  0  0  0  0  0  0
    5.4553   -8.5933   27.9644 C   0  0  0  0  0  0  0  0  0  0  0  0
   -2.3870  -12.8440   19.2512 C   0  0  0  0  0  0  0  0  0  0  0  0
    0.5331   -7.6964   16.2751 C   0  0  0  0  0  0  0  0  0  0  0  0
   -0.6740  -10.8737   18.0482 C   0  0  0  0  0  0  0  0  0  0  0  0
    5.6751  -10.5870   29.7637 O   0  0  0  0  0  0  0  0  0  0  0  0
    1.7612   -5.6483   26.7172 C   0  0  0  0  0  0  0  0  0  0  0  0
    0.2221   -9.8326   17.4055 C   0  0  0  0  0  0  0  0  0  0  0  0
    4.3850   -9.0730   28.6745 C   0  0  0  0  0  0  0  0  0  0  0  0
  1  7  4  0
  1 22  4  0
  2 17  4  0
  2 20  4  0
  2 28  4  0
  3  6  1  0
  3 19  1  0
  4 19  1  0
  4 26  1  0
  5 17  4  0
  5 18  4  0
  6 20  1  0
  6 26  1  0
  7 24  4  0
  8 15  4  0
  8 24  4  0
  9 14  4  0
  9 21  4  0
 10 12  4  0
 10 27  4  0
 11 12  4  0
 11 23  4  0
 13 23  4  0
 13 27  4  0
 14 20  4  0
 15 22  4  0
 16 18  4  0
 16 25  2  0
 16 28  4  0
 21 28  4  0
 24 27  1  0
M  END
$$$$

 Created by Python create_sdf_string function

 28 31  0  0  0  0  0  0  0  0999 V2000
   -1.0054  -13.0622   19.1198 C   0  0  0  0  0  0  0  0  0  0  0  0
    3.1478   -8.5360   28.5161 C   0  0  0  0  0  0  0  0  0  0  0  0
    0.5798   -7.1906   27.9330 C   0  0  0  0  0  0  0  0  0  0  0  0
    0.3978   -5.1561   26.6955 C   0  0  0  0  0  0  0  0  0  0  0  0
    2.3063  -10.0533   30.0125 C   0  0  0  0  0  0  0  0  0  0  0  0
    1.8591   -6.8254   27.4685 N   0  0  0  0  0  0  0  0  0  0  0  0
   -0.2167  -12.1055   18.5568 C   0  0  0  0  0  0  0  0  0  0  0  0
   -2.0661  -10.6994   18.1916 C   0  0  0  0  0  0  0  0  0  0  0  0
    5.2703   -7.5691   27.1123 C   0  0  0  0  0  0  0  0  0  0  0  0
    1.6204   -9.9887   17.2935 C   0  0  0  0  0  0  0  0  0  0  0  0
    1.8931   -7.9265   16.2047 C   0  0  0  0  0  0  0  0  0  0  0  0
    2.4396   -9.0801   16.7132 C   0  0  0  0  0  0  0  0  0  0  0  0
   -0.2575   -8.6234   16.8582 C   0  0  0  0  0  0  0  0  0  0  0  0
    4.0614   -7.0367   27.0106 N   0  0  0  0  0  0  0  0  0  0  0  0
   -2.9133  -11.6279   18.7578 C   0  0  0  0  0  0  0  0  0  0  0  0
    4.5688  -10.1291   29.5758 C   0  0  0  0  0  0  0  0  0  0  0  0
    2.1008   -9.0410   29.1852 N   0  0  0  0  0  0  0  0  0  0  0  0
    3.4829  -10.5697   30.2091 N   0  0  0  0  0  0  0  0  0  0  0  0
   -0.3363   -6.1172   27.5628 C   0  0  0  0  0  0  0  0  0  0  0  0
    3.0331   -7.4400   27.6362 C   0  0  0  0  0  0  0  0  0  0  0  0
    5.4553   -8.5933   27.9644 C   0  0  0  0  0  0  0  0  0  0  0  0
   -2.3870  -12.8440   19.2512 C   0  0  0  0  0  0  0  0  0  0  0  0
    0.5331   -7.6964   16.2751 C   0  0  0  0  0  0  0  0  0  0  0  0
   -0.6740  -10.8737   18.0482 C   0  0  0  0  0  0  0  0  0  0  0  0
    5.6751  -10.5870   29.7637 O   0  0  0  0  0  0  0  0  0  0  0  0
    1.7612   -5.6483   26.7172 C   0  0  0  0  0  0  0  0  0  0  0  0
    0.2221   -9.8326   17.4055 C   0  0  0  0  0  0  0  0  0  0  0  0
    4.3850   -9.0730   28.6745 C   0  0  0  0  0  0  0  0  0  0  0  0
  1  7  4  0
  1 22  4  0
  2 17  4  0
  2 20  4  0
  2 28  4  0
  3  6  1  0
  3 19  1  0
  4 19  1  0
  4 26  1  0
  5 17  4  0
  5 18  4  0
  6 20  1  0
  6 26  1  0
  7 24  4  0
  8 15  4  0
  8 24  4  0
  9 14  4  0
  9 21  4  0
 10 12  4  0
 10 27  4  0
 11 12  4  0
 11 23  4  0
 13 23  4  0
 13 27  4  0
 14 20  4  0
 15 22  4  0
 16 18  4  0
 16 25  2  0
 16 28  4  0
 21 28  4  0
 24 27  1  0
M  END
$$$$

 Created by Python create_sdf_string function

 28 31  0  0  0  0  0  0  0  0999 V2000
   -1.0054  -13.0622   19.1198 C   0  0  0  0  0  0  0  0  0  0  0  0
    3.1478   -8.5360   28.5161 C   0  0  0  0  0  0  0  0  0  0  0  0
    0.5798   -7.1906   27.9330 C   0  0  0  0  0  0  0  0  0  0  0  0
    0.3978   -5.1561   26.6955 C   0  0  0  0  0  0  0  0  0  0  0  0
    2.3063  -10.0533   30.0125 C   0  0  0  0  0  0  0  0  0  0  0  0
    1.8591   -6.8254   27.4685 N   0  0  0  0  0  0  0  0  0  0  0  0
   -0.2167  -12.1055   18.5568 C   0  0  0  0  0  0  0  0  0  0  0  0
   -2.0661  -10.6994   18.1916 C   0  0  0  0  0  0  0  0  0  0  0  0
    5.2703   -7.5691   27.1123 C   0  0  0  0  0  0  0  0  0  0  0  0
    1.6204   -9.9887   17.2935 C   0  0  0  0  0  0  0  0  0  0  0  0
    1.8931   -7.9265   16.2047 C   0  0  0  0  0  0  0  0  0  0  0  0
    2.4396   -9.0801   16.7132 C   0  0  0  0  0  0  0  0  0  0  0  0
   -0.2575   -8.6234   16.8582 C   0  0  0  0  0  0  0  0  0  0  0  0
    4.0614   -7.0367   27.0106 N   0  0  0  0  0  0  0  0  0  0  0  0
   -2.9133  -11.6279   18.7578 C   0  0  0  0  0  0  0  0  0  0  0  0
    4.5688  -10.1291   29.5758 C   0  0  0  0  0  0  0  0  0  0  0  0
    2.1008   -9.0410   29.1852 N   0  0  0  0  0  0  0  0  0  0  0  0
    3.4829  -10.5697   30.2091 N   0  0  0  0  0  0  0  0  0  0  0  0
   -0.3363   -6.1172   27.5628 C   0  0  0  0  0  0  0  0  0  0  0  0
    3.0331   -7.4400   27.6362 C   0  0  0  0  0  0  0  0  0  0  0  0
    5.4553   -8.5933   27.9644 C   0  0  0  0  0  0  0  0  0  0  0  0
   -2.3870  -12.8440   19.2512 C   0  0  0  0  0  0  0  0  0  0  0  0
    0.5331   -7.6964   16.2751 C   0  0  0  0  0  0  0  0  0  0  0  0
   -0.6740  -10.8737   18.0482 C   0  0  0  0  0  0  0  0  0  0  0  0
    5.6751  -10.5870   29.7637 O   0  0  0  0  0  0  0  0  0  0  0  0
    1.7612   -5.6483   26.7172 C   0  0  0  0  0  0  0  0  0  0  0  0
    0.2221   -9.8326   17.4055 C   0  0  0  0  0  0  0  0  0  0  0  0
    4.3850   -9.0730   28.6745 C   0  0  0  0  0  0  0  0  0  0  0  0
  1  7  4  0
  1 22  4  0
  2 17  4  0
  2 20  4  0
  2 28  4  0
  3  6  1  0
  3 19  1  0
  4 19  1  0
  4 26  1  0
  5 17  4  0
  5 18  4  0
  6 20  1  0
  6 26  1  0
  7 24  4  0
  8 15  4  0
  8 24  4  0
  9 14  4  0
  9 21  4  0
 10 12  4  0
 10 27  4  0
 11 12  4  0
 11 23  4  0
 13 23  4  0
 13 27  4  0
 14 20  4  0
 15 22  4  0
 16 18  4  0
 16 25  2  0
 16 28  4  0
 21 28  4  0
 24 27  1  0
M  END
$$$$

 Created by Python create_sdf_string function

 28 31  0  0  0  0  0  0  0  0999 V2000
   -1.0054  -13.0622   19.1198 C   0  0  0  0  0  0  0  0  0  0  0  0
    3.1478   -8.5360   28.5161 C   0  0  0  0  0  0  0  0  0  0  0  0
    0.5798   -7.1906   27.9330 C   0  0  0  0  0  0  0  0  0  0  0  0
    0.3978   -5.1561   26.6955 C   0  0  0  0  0  0  0  0  0  0  0  0
    2.3063  -10.0533   30.0125 C   0  0  0  0  0  0  0  0  0  0  0  0
    1.8591   -6.8254   27.4685 N   0  0  0  0  0  0  0  0  0  0  0  0
   -0.2167  -12.1055   18.5568 C   0  0  0  0  0  0  0  0  0  0  0  0
   -2.0661  -10.6994   18.1916 C   0  0  0  0  0  0  0  0  0  0  0  0
    5.2703   -7.5691   27.1123 C   0  0  0  0  0  0  0  0  0  0  0  0
    1.6204   -9.9887   17.2935 C   0  0  0  0  0  0  0  0  0  0  0  0
    1.8931   -7.9265   16.2047 C   0  0  0  0  0  0  0  0  0  0  0  0
    2.4396   -9.0801   16.7132 C   0  0  0  0  0  0  0  0  0  0  0  0
   -0.2575   -8.6234   16.8582 C   0  0  0  0  0  0  0  0  0  0  0  0
    4.0614   -7.0367   27.0106 N   0  0  0  0  0  0  0  0  0  0  0  0
   -2.9133  -11.6279   18.7578 C   0  0  0  0  0  0  0  0  0  0  0  0
    4.5688  -10.1291   29.5758 C   0  0  0  0  0  0  0  0  0  0  0  0
    2.1008   -9.0410   29.1852 N   0  0  0  0  0  0  0  0  0  0  0  0
    3.4829  -10.5697   30.2091 N   0  0  0  0  0  0  0  0  0  0  0  0
   -0.3363   -6.1172   27.5628 C   0  0  0  0  0  0  0  0  0  0  0  0
    3.0331   -7.4400   27.6362 C   0  0  0  0  0  0  0  0  0  0  0  0
    5.4553   -8.5933   27.9644 C   0  0  0  0  0  0  0  0  0  0  0  0
   -2.3870  -12.8440   19.2512 C   0  0  0  0  0  0  0  0  0  0  0  0
    0.5331   -7.6964   16.2751 C   0  0  0  0  0  0  0  0  0  0  0  0
   -0.6740  -10.8737   18.0482 C   0  0  0  0  0  0  0  0  0  0  0  0
    5.6751  -10.5870   29.7637 O   0  0  0  0  0  0  0  0  0  0  0  0
    1.7612   -5.6483   26.7172 C   0  0  0  0  0  0  0  0  0  0  0  0
    0.2221   -9.8326   17.4055 C   0  0  0  0  0  0  0  0  0  0  0  0
    4.3850   -9.0730   28.6745 C   0  0  0  0  0  0  0  0  0  0  0  0
  1  7  4  0
  1 22  4  0
  2 17  4  0
  2 20  4  0
  2 28  4  0
  3  6  1  0
  3 19  1  0
  4 19  1  0
  4 26  1  0
  5 17  4  0
  5 18  4  0
  6 20  1  0
  6 26  1  0
  7 24  4  0
  8 15  4  0
  8 24  4  0
  9 14  4  0
  9 21  4  0
 10 12  4  0
 10 27  4  0
 11 12  4  0
 11 23  4  0
 13 23  4  0
 13 27  4  0
 14 20  4  0
 15 22  4  0
 16 18  4  0
 16 25  2  0
 16 28  4  0
 21 28  4  0
 24 27  1  0
M  END
$$$$

 Created by Python create_sdf_string function

 28 31  0  0  0  0  0  0  0  0999 V2000
   -1.0054  -13.0622   19.1198 C   0  0  0  0  0  0  0  0  0  0  0  0
    3.1478   -8.5360   28.5161 C   0  0  0  0  0  0  0  0  0  0  0  0
    0.5798   -7.1906   27.9330 C   0  0  0  0  0  0  0  0  0  0  0  0
    0.3978   -5.1561   26.6955 C   0  0  0  0  0  0  0  0  0  0  0  0
    2.3063  -10.0533   30.0125 C   0  0  0  0  0  0  0  0  0  0  0  0
    1.8591   -6.8254   27.4685 N   0  0  0  0  0  0  0  0  0  0  0  0
   -0.2167  -12.1055   18.5568 C   0  0  0  0  0  0  0  0  0  0  0  0
   -2.0661  -10.6994   18.1916 C   0  0  0  0  0  0  0  0  0  0  0  0
    5.2703   -7.5691   27.1123 C   0  0  0  0  0  0  0  0  0  0  0  0
    1.6204   -9.9887   17.2935 C   0  0  0  0  0  0  0  0  0  0  0  0
    1.8931   -7.9265   16.2047 C   0  0  0  0  0  0  0  0  0  0  0  0
    2.4396   -9.0801   16.7132 C   0  0  0  0  0  0  0  0  0  0  0  0
   -0.2575   -8.6234   16.8582 C   0  0  0  0  0  0  0  0  0  0  0  0
    4.0614   -7.0367   27.0106 N   0  0  0  0  0  0  0  0  0  0  0  0
   -2.9133  -11.6279   18.7578 C   0  0  0  0  0  0  0  0  0  0  0  0
    4.5688  -10.1291   29.5758 C   0  0  0  0  0  0  0  0  0  0  0  0
    2.1008   -9.0410   29.1852 N   0  0  0  0  0  0  0  0  0  0  0  0
    3.4829  -10.5697   30.2091 N   0  0  0  0  0  0  0  0  0  0  0  0
   -0.3363   -6.1172   27.5628 C   0  0  0  0  0  0  0  0  0  0  0  0
    3.0331   -7.4400   27.6362 C   0  0  0  0  0  0  0  0  0  0  0  0
    5.4553   -8.5933   27.9644 C   0  0  0  0  0  0  0  0  0  0  0  0
   -2.3870  -12.8440   19.2512 C   0  0  0  0  0  0  0  0  0  0  0  0
    0.5331   -7.6964   16.2751 C   0  0  0  0  0  0  0  0  0  0  0  0
   -0.6740  -10.8737   18.0482 C   0  0  0  0  0  0  0  0  0  0  0  0
    5.6751  -10.5870   29.7637 O   0  0  0  0  0  0  0  0  0  0  0  0
    1.7612   -5.6483   26.7172 C   0  0  0  0  0  0  0  0  0  0  0  0
    0.2221   -9.8326   17.4055 C   0  0  0  0  0  0  0  0  0  0  0  0
    4.3850   -9.0730   28.6745 C   0  0  0  0  0  0  0  0  0  0  0  0
  1  7  4  0
  1 22  4  0
  2 17  4  0
  2 20  4  0
  2 28  4  0
  3  6  1  0
  3 19  1  0
  4 19  1  0
  4 26  1  0
  5 17  4  0
  5 18  4  0
  6 20  1  0
  6 26  1  0
  7 24  4  0
  8 15  4  0
  8 24  4  0
  9 14  4  0
  9 21  4  0
 10 12  4  0
 10 27  4  0
 11 12  4  0
 11 23  4  0
 13 23  4  0
 13 27  4  0
 14 20  4  0
 15 22  4  0
 16 18  4  0
 16 25  2  0
 16 28  4  0
 21 28  4  0
 24 27  1  0
M  END
$$$$

 Created by Python create_sdf_string function

 28 31  0  0  0  0  0  0  0  0999 V2000
   -1.0054  -13.0622   19.1198 C   0  0  0  0  0  0  0  0  0  0  0  0
    3.1478   -8.5360   28.5161 C   0  0  0  0  0  0  0  0  0  0  0  0
    0.5798   -7.1906   27.9330 C   0  0  0  0  0  0  0  0  0  0  0  0
    0.3978   -5.1561   26.6955 C   0  0  0  0  0  0  0  0  0  0  0  0
    2.3063  -10.0533   30.0125 C   0  0  0  0  0  0  0  0  0  0  0  0
    1.8591   -6.8254   27.4685 N   0  0  0  0  0  0  0  0  0  0  0  0
   -0.2167  -12.1055   18.5568 C   0  0  0  0  0  0  0  0  0  0  0  0
   -2.0661  -10.6994   18.1916 C   0  0  0  0  0  0  0  0  0  0  0  0
    5.2703   -7.5691   27.1123 C   0  0  0  0  0  0  0  0  0  0  0  0
    1.6204   -9.9887   17.2935 C   0  0  0  0  0  0  0  0  0  0  0  0
    1.8931   -7.9265   16.2047 C   0  0  0  0  0  0  0  0  0  0  0  0
    2.4396   -9.0801   16.7132 C   0  0  0  0  0  0  0  0  0  0  0  0
   -0.2575   -8.6234   16.8582 C   0  0  0  0  0  0  0  0  0  0  0  0
    4.0614   -7.0367   27.0106 N   0  0  0  0  0  0  0  0  0  0  0  0
   -2.9133  -11.6279   18.7578 C   0  0  0  0  0  0  0  0  0  0  0  0
    4.5688  -10.1291   29.5758 C   0  0  0  0  0  0  0  0  0  0  0  0
    2.1008   -9.0410   29.1852 N   0  0  0  0  0  0  0  0  0  0  0  0
    3.4829  -10.5697   30.2091 N   0  0  0  0  0  0  0  0  0  0  0  0
   -0.3363   -6.1172   27.5628 C   0  0  0  0  0  0  0  0  0  0  0  0
    3.0331   -7.4400   27.6362 C   0  0  0  0  0  0  0  0  0  0  0  0
    5.4553   -8.5933   27.9644 C   0  0  0  0  0  0  0  0  0  0  0  0
   -2.3870  -12.8440   19.2512 C   0  0  0  0  0  0  0  0  0  0  0  0
    0.5331   -7.6964   16.2751 C   0  0  0  0  0  0  0  0  0  0  0  0
   -0.6740  -10.8737   18.0482 C   0  0  0  0  0  0  0  0  0  0  0  0
    5.6751  -10.5870   29.7637 O   0  0  0  0  0  0  0  0  0  0  0  0
    1.7612   -5.6483   26.7172 C   0  0  0  0  0  0  0  0  0  0  0  0
    0.2221   -9.8326   17.4055 C   0  0  0  0  0  0  0  0  0  0  0  0
    4.3850   -9.0730   28.6745 C   0  0  0  0  0  0  0  0  0  0  0  0
  1  7  4  0
  1 22  4  0
  2 17  4  0
  2 20  4  0
  2 28  4  0
  3  6  1  0
  3 19  1  0
  4 19  1  0
  4 26  1  0
  5 17  4  0
  5 18  4  0
  6 20  1  0
  6 26  1  0
  7 24  4  0
  8 15  4  0
  8 24  4  0
  9 14  4  0
  9 21  4  0
 10 12  4  0
 10 27  4  0
 11 12  4  0
 11 23  4  0
 13 23  4  0
 13 27  4  0
 14 20  4  0
 15 22  4  0
 16 18  4  0
 16 25  2  0
 16 28  4  0
 21 28  4  0
 24 27  1  0
M  END
$$$$

 Created by Python create_sdf_string function

 28 31  0  0  0  0  0  0  0  0999 V2000
   -1.0054  -13.0622   19.1198 C   0  0  0  0  0  0  0  0  0  0  0  0
    3.1478   -8.5360   28.5161 C   0  0  0  0  0  0  0  0  0  0  0  0
    0.5798   -7.1906   27.9330 C   0  0  0  0  0  0  0  0  0  0  0  0
    0.3978   -5.1561   26.6955 C   0  0  0  0  0  0  0  0  0  0  0  0
    2.3063  -10.0533   30.0125 C   0  0  0  0  0  0  0  0  0  0  0  0
    1.8591   -6.8254   27.4685 N   0  0  0  0  0  0  0  0  0  0  0  0
   -0.2167  -12.1055   18.5568 C   0  0  0  0  0  0  0  0  0  0  0  0
   -2.0661  -10.6994   18.1916 C   0  0  0  0  0  0  0  0  0  0  0  0
    5.2703   -7.5691   27.1123 C   0  0  0  0  0  0  0  0  0  0  0  0
    1.6204   -9.9887   17.2935 C   0  0  0  0  0  0  0  0  0  0  0  0
    1.8931   -7.9265   16.2047 C   0  0  0  0  0  0  0  0  0  0  0  0
    2.4396   -9.0801   16.7132 C   0  0  0  0  0  0  0  0  0  0  0  0
   -0.2575   -8.6234   16.8582 C   0  0  0  0  0  0  0  0  0  0  0  0
    4.0614   -7.0367   27.0106 N   0  0  0  0  0  0  0  0  0  0  0  0
   -2.9133  -11.6279   18.7578 C   0  0  0  0  0  0  0  0  0  0  0  0
    4.5688  -10.1291   29.5758 C   0  0  0  0  0  0  0  0  0  0  0  0
    2.1008   -9.0410   29.1852 N   0  0  0  0  0  0  0  0  0  0  0  0
    3.4829  -10.5697   30.2091 N   0  0  0  0  0  0  0  0  0  0  0  0
   -0.3363   -6.1172   27.5628 C   0  0  0  0  0  0  0  0  0  0  0  0
    3.0331   -7.4400   27.6362 C   0  0  0  0  0  0  0  0  0  0  0  0
    5.4553   -8.5933   27.9644 C   0  0  0  0  0  0  0  0  0  0  0  0
   -2.3870  -12.8440   19.2512 C   0  0  0  0  0  0  0  0  0  0  0  0
    0.5331   -7.6964   16.2751 C   0  0  0  0  0  0  0  0  0  0  0  0
   -0.6740  -10.8737   18.0482 C   0  0  0  0  0  0  0  0  0  0  0  0
    5.6751  -10.5870   29.7637 O   0  0  0  0  0  0  0  0  0  0  0  0
    1.7612   -5.6483   26.7172 C   0  0  0  0  0  0  0  0  0  0  0  0
    0.2221   -9.8326   17.4055 C   0  0  0  0  0  0  0  0  0  0  0  0
    4.3850   -9.0730   28.6745 C   0  0  0  0  0  0  0  0  0  0  0  0
  1  7  4  0
  1 22  4  0
  2 17  4  0
  2 20  4  0
  2 28  4  0
  3  6  1  0
  3 19  1  0
  4 19  1  0
  4 26  1  0
  5 17  4  0
  5 18  4  0
  6 20  1  0
  6 26  1  0
  7 24  4  0
  8 15  4  0
  8 24  4  0
  9 14  4  0
  9 21  4  0
 10 12  4  0
 10 27  4  0
 11 12  4  0
 11 23  4  0
 13 23  4  0
 13 27  4  0
 14 20  4  0
 15 22  4  0
 16 18  4  0
 16 25  2  0
 16 28  4  0
 21 28  4  0
 24 27  1  0
M  END
$$$$

 Created by Python create_sdf_string function

 28 31  0  0  0  0  0  0  0  0999 V2000
   -1.0054  -13.0622   19.1198 C   0  0  0  0  0  0  0  0  0  0  0  0
    3.1478   -8.5360   28.5161 C   0  0  0  0  0  0  0  0  0  0  0  0
    0.5798   -7.1906   27.9330 C   0  0  0  0  0  0  0  0  0  0  0  0
    0.3978   -5.1561   26.6955 C   0  0  0  0  0  0  0  0  0  0  0  0
    2.3063  -10.0533   30.0125 C   0  0  0  0  0  0  0  0  0  0  0  0
    1.8591   -6.8254   27.4685 N   0  0  0  0  0  0  0  0  0  0  0  0
   -0.2167  -12.1055   18.5568 C   0  0  0  0  0  0  0  0  0  0  0  0
   -2.0661  -10.6994   18.1916 C   0  0  0  0  0  0  0  0  0  0  0  0
    5.2703   -7.5691   27.1123 C   0  0  0  0  0  0  0  0  0  0  0  0
    1.6204   -9.9887   17.2935 C   0  0  0  0  0  0  0  0  0  0  0  0
    1.8931   -7.9265   16.2047 C   0  0  0  0  0  0  0  0  0  0  0  0
    2.4396   -9.0801   16.7132 C   0  0  0  0  0  0  0  0  0  0  0  0
   -0.2575   -8.6234   16.8582 C   0  0  0  0  0  0  0  0  0  0  0  0
    4.0614   -7.0367   27.0106 N   0  0  0  0  0  0  0  0  0  0  0  0
   -2.9133  -11.6279   18.7578 C   0  0  0  0  0  0  0  0  0  0  0  0
    4.5688  -10.1291   29.5758 C   0  0  0  0  0  0  0  0  0  0  0  0
    2.1008   -9.0410   29.1852 N   0  0  0  0  0  0  0  0  0  0  0  0
    3.4829  -10.5697   30.2091 N   0  0  0  0  0  0  0  0  0  0  0  0
   -0.3363   -6.1172   27.5628 C   0  0  0  0  0  0  0  0  0  0  0  0
    3.0331   -7.4400   27.6362 C   0  0  0  0  0  0  0  0  0  0  0  0
    5.4553   -8.5933   27.9644 C   0  0  0  0  0  0  0  0  0  0  0  0
   -2.3870  -12.8440   19.2512 C   0  0  0  0  0  0  0  0  0  0  0  0
    0.5331   -7.6964   16.2751 C   0  0  0  0  0  0  0  0  0  0  0  0
   -0.6740  -10.8737   18.0482 C   0  0  0  0  0  0  0  0  0  0  0  0
    5.6751  -10.5870   29.7637 O   0  0  0  0  0  0  0  0  0  0  0  0
    1.7612   -5.6483   26.7172 C   0  0  0  0  0  0  0  0  0  0  0  0
    0.2221   -9.8326   17.4055 C   0  0  0  0  0  0  0  0  0  0  0  0
    4.3850   -9.0730   28.6745 C   0  0  0  0  0  0  0  0  0  0  0  0
  1  7  4  0
  1 22  4  0
  2 17  4  0
  2 20  4  0
  2 28  4  0
  3  6  1  0
  3 19  1  0
  4 19  1  0
  4 26  1  0
  5 17  4  0
  5 18  4  0
  6 20  1  0
  6 26  1  0
  7 24  4  0
  8 15  4  0
  8 24  4  0
  9 14  4  0
  9 21  4  0
 10 12  4  0
 10 27  4  0
 11 12  4  0
 11 23  4  0
 13 23  4  0
 13 27  4  0
 14 20  4  0
 15 22  4  0
 16 18  4  0
 16 25  2  0
 16 28  4  0
 21 28  4  0
 24 27  1  0
M  END
$$$$

 Created by Python create_sdf_string function

 28 31  0  0  0  0  0  0  0  0999 V2000
   -1.0054  -13.0622   19.1198 C   0  0  0  0  0  0  0  0  0  0  0  0
    3.1478   -8.5360   28.5161 C   0  0  0  0  0  0  0  0  0  0  0  0
    0.5798   -7.1906   27.9330 C   0  0  0  0  0  0  0  0  0  0  0  0
    0.3978   -5.1561   26.6955 C   0  0  0  0  0  0  0  0  0  0  0  0
    2.3063  -10.0533   30.0125 C   0  0  0  0  0  0  0  0  0  0  0  0
    1.8591   -6.8254   27.4685 N   0  0  0  0  0  0  0  0  0  0  0  0
   -0.2167  -12.1055   18.5568 C   0  0  0  0  0  0  0  0  0  0  0  0
   -2.0661  -10.6994   18.1916 C   0  0  0  0  0  0  0  0  0  0  0  0
    5.2703   -7.5691   27.1123 C   0  0  0  0  0  0  0  0  0  0  0  0
    1.6204   -9.9887   17.2935 C   0  0  0  0  0  0  0  0  0  0  0  0
    1.8931   -7.9265   16.2047 C   0  0  0  0  0  0  0  0  0  0  0  0
    2.4396   -9.0801   16.7132 C   0  0  0  0  0  0  0  0  0  0  0  0
   -0.2575   -8.6234   16.8582 C   0  0  0  0  0  0  0  0  0  0  0  0
    4.0614   -7.0367   27.0106 N   0  0  0  0  0  0  0  0  0  0  0  0
   -2.9133  -11.6279   18.7578 C   0  0  0  0  0  0  0  0  0  0  0  0
    4.5688  -10.1291   29.5758 C   0  0  0  0  0  0  0  0  0  0  0  0
    2.1008   -9.0410   29.1852 N   0  0  0  0  0  0  0  0  0  0  0  0
    3.4829  -10.5697   30.2091 N   0  0  0  0  0  0  0  0  0  0  0  0
   -0.3363   -6.1172   27.5628 C   0  0  0  0  0  0  0  0  0  0  0  0
    3.0331   -7.4400   27.6362 C   0  0  0  0  0  0  0  0  0  0  0  0
    5.4553   -8.5933   27.9644 C   0  0  0  0  0  0  0  0  0  0  0  0
   -2.3870  -12.8440   19.2512 C   0  0  0  0  0  0  0  0  0  0  0  0
    0.5331   -7.6964   16.2751 C   0  0  0  0  0  0  0  0  0  0  0  0
   -0.6740  -10.8737   18.0482 C   0  0  0  0  0  0  0  0  0  0  0  0
    5.6751  -10.5870   29.7637 O   0  0  0  0  0  0  0  0  0  0  0  0
    1.7612   -5.6483   26.7172 C   0  0  0  0  0  0  0  0  0  0  0  0
    0.2221   -9.8326   17.4055 C   0  0  0  0  0  0  0  0  0  0  0  0
    4.3850   -9.0730   28.6745 C   0  0  0  0  0  0  0  0  0  0  0  0
  1  7  4  0
  1 22  4  0
  2 17  4  0
  2 20  4  0
  2 28  4  0
  3  6  1  0
  3 19  1  0
  4 19  1  0
  4 26  1  0
  5 17  4  0
  5 18  4  0
  6 20  1  0
  6 26  1  0
  7 24  4  0
  8 15  4  0
  8 24  4  0
  9 14  4  0
  9 21  4  0
 10 12  4  0
 10 27  4  0
 11 12  4  0
 11 23  4  0
 13 23  4  0
 13 27  4  0
 14 20  4  0
 15 22  4  0
 16 18  4  0
 16 25  2  0
 16 28  4  0
 21 28  4  0
 24 27  1  0
M  END
$$$$

 Created by Python create_sdf_string function

 28 31  0  0  0  0  0  0  0  0999 V2000
   -1.0054  -13.0622   19.1198 C   0  0  0  0  0  0  0  0  0  0  0  0
    3.1478   -8.5360   28.5161 C   0  0  0  0  0  0  0  0  0  0  0  0
    0.5798   -7.1906   27.9330 C   0  0  0  0  0  0  0  0  0  0  0  0
    0.3978   -5.1561   26.6955 C   0  0  0  0  0  0  0  0  0  0  0  0
    2.3063  -10.0533   30.0125 C   0  0  0  0  0  0  0  0  0  0  0  0
    1.8591   -6.8254   27.4685 N   0  0  0  0  0  0  0  0  0  0  0  0
   -0.2167  -12.1055   18.5568 C   0  0  0  0  0  0  0  0  0  0  0  0
   -2.0661  -10.6994   18.1916 C   0  0  0  0  0  0  0  0  0  0  0  0
    5.2703   -7.5691   27.1123 C   0  0  0  0  0  0  0  0  0  0  0  0
    1.6204   -9.9887   17.2935 C   0  0  0  0  0  0  0  0  0  0  0  0
    1.8931   -7.9265   16.2047 C   0  0  0  0  0  0  0  0  0  0  0  0
    2.4396   -9.0801   16.7132 C   0  0  0  0  0  0  0  0  0  0  0  0
   -0.2575   -8.6234   16.8582 C   0  0  0  0  0  0  0  0  0  0  0  0
    4.0614   -7.0367   27.0106 N   0  0  0  0  0  0  0  0  0  0  0  0
   -2.9133  -11.6279   18.7578 C   0  0  0  0  0  0  0  0  0  0  0  0
    4.5688  -10.1291   29.5758 C   0  0  0  0  0  0  0  0  0  0  0  0
    2.1008   -9.0410   29.1852 N   0  0  0  0  0  0  0  0  0  0  0  0
    3.4829  -10.5697   30.2091 N   0  0  0  0  0  0  0  0  0  0  0  0
   -0.3363   -6.1172   27.5628 C   0  0  0  0  0  0  0  0  0  0  0  0
    3.0331   -7.4400   27.6362 C   0  0  0  0  0  0  0  0  0  0  0  0
    5.4553   -8.5933   27.9644 C   0  0  0  0  0  0  0  0  0  0  0  0
   -2.3870  -12.8440   19.2512 C   0  0  0  0  0  0  0  0  0  0  0  0
    0.5331   -7.6964   16.2751 C   0  0  0  0  0  0  0  0  0  0  0  0
   -0.6740  -10.8737   18.0482 C   0  0  0  0  0  0  0  0  0  0  0  0
    5.6751  -10.5870   29.7637 O   0  0  0  0  0  0  0  0  0  0  0  0
    1.7612   -5.6483   26.7172 C   0  0  0  0  0  0  0  0  0  0  0  0
    0.2221   -9.8326   17.4055 C   0  0  0  0  0  0  0  0  0  0  0  0
    4.3850   -9.0730   28.6745 C   0  0  0  0  0  0  0  0  0  0  0  0
  1  7  4  0
  1 22  4  0
  2 17  4  0
  2 20  4  0
  2 28  4  0
  3  6  1  0
  3 19  1  0
  4 19  1  0
  4 26  1  0
  5 17  4  0
  5 18  4  0
  6 20  1  0
  6 26  1  0
  7 24  4  0
  8 15  4  0
  8 24  4  0
  9 14  4  0
  9 21  4  0
 10 12  4  0
 10 27  4  0
 11 12  4  0
 11 23  4  0
 13 23  4  0
 13 27  4  0
 14 20  4  0
 15 22  4  0
 16 18  4  0
 16 25  2  0
 16 28  4  0
 21 28  4  0
 24 27  1  0
M  END
$$$$

 Created by Python create_sdf_string function

 28 31  0  0  0  0  0  0  0  0999 V2000
   -1.0054  -13.0622   19.1198 C   0  0  0  0  0  0  0  0  0  0  0  0
    3.1478   -8.5360   28.5161 C   0  0  0  0  0  0  0  0  0  0  0  0
    0.5798   -7.1906   27.9330 C   0  0  0  0  0  0  0  0  0  0  0  0
    0.3978   -5.1561   26.6955 C   0  0  0  0  0  0  0  0  0  0  0  0
    2.3063  -10.0533   30.0125 C   0  0  0  0  0  0  0  0  0  0  0  0
    1.8591   -6.8254   27.4685 N   0  0  0  0  0  0  0  0  0  0  0  0
   -0.2167  -12.1055   18.5568 C   0  0  0  0  0  0  0  0  0  0  0  0
   -2.0661  -10.6994   18.1916 C   0  0  0  0  0  0  0  0  0  0  0  0
    5.2703   -7.5691   27.1123 C   0  0  0  0  0  0  0  0  0  0  0  0
    1.6204   -9.9887   17.2935 C   0  0  0  0  0  0  0  0  0  0  0  0
    1.8931   -7.9265   16.2047 C   0  0  0  0  0  0  0  0  0  0  0  0
    2.4396   -9.0801   16.7132 C   0  0  0  0  0  0  0  0  0  0  0  0
   -0.2575   -8.6234   16.8582 C   0  0  0  0  0  0  0  0  0  0  0  0
    4.0614   -7.0367   27.0106 N   0  0  0  0  0  0  0  0  0  0  0  0
   -2.9133  -11.6279   18.7578 C   0  0  0  0  0  0  0  0  0  0  0  0
    4.5688  -10.1291   29.5758 C   0  0  0  0  0  0  0  0  0  0  0  0
    2.1008   -9.0410   29.1852 N   0  0  0  0  0  0  0  0  0  0  0  0
    3.4829  -10.5697   30.2091 N   0  0  0  0  0  0  0  0  0  0  0  0
   -0.3363   -6.1172   27.5628 C   0  0  0  0  0  0  0  0  0  0  0  0
    3.0331   -7.4400   27.6362 C   0  0  0  0  0  0  0  0  0  0  0  0
    5.4553   -8.5933   27.9644 C   0  0  0  0  0  0  0  0  0  0  0  0
   -2.3870  -12.8440   19.2512 C   0  0  0  0  0  0  0  0  0  0  0  0
    0.5331   -7.6964   16.2751 C   0  0  0  0  0  0  0  0  0  0  0  0
   -0.6740  -10.8737   18.0482 C   0  0  0  0  0  0  0  0  0  0  0  0
    5.6751  -10.5870   29.7637 O   0  0  0  0  0  0  0  0  0  0  0  0
    1.7612   -5.6483   26.7172 C   0  0  0  0  0  0  0  0  0  0  0  0
    0.2221   -9.8326   17.4055 C   0  0  0  0  0  0  0  0  0  0  0  0
    4.3850   -9.0730   28.6745 C   0  0  0  0  0  0  0  0  0  0  0  0
  1  7  4  0
  1 22  4  0
  2 17  4  0
  2 20  4  0
  2 28  4  0
  3  6  1  0
  3 19  1  0
  4 19  1  0
  4 26  1  0
  5 17  4  0
  5 18  4  0
  6 20  1  0
  6 26  1  0
  7 24  4  0
  8 15  4  0
  8 24  4  0
  9 14  4  0
  9 21  4  0
 10 12  4  0
 10 27  4  0
 11 12  4  0
 11 23  4  0
 13 23  4  0
 13 27  4  0
 14 20  4  0
 15 22  4  0
 16 18  4  0
 16 25  2  0
 16 28  4  0
 21 28  4  0
 24 27  1  0
M  END
$$$$

 Created by Python create_sdf_string function

 28 31  0  0  0  0  0  0  0  0999 V2000
   -1.0054  -13.0622   19.1198 C   0  0  0  0  0  0  0  0  0  0  0  0
    3.1478   -8.5360   28.5161 C   0  0  0  0  0  0  0  0  0  0  0  0
    0.5798   -7.1906   27.9330 C   0  0  0  0  0  0  0  0  0  0  0  0
    0.3978   -5.1561   26.6955 C   0  0  0  0  0  0  0  0  0  0  0  0
    2.3063  -10.0533   30.0125 C   0  0  0  0  0  0  0  0  0  0  0  0
    1.8591   -6.8254   27.4685 N   0  0  0  0  0  0  0  0  0  0  0  0
   -0.2167  -12.1055   18.5568 C   0  0  0  0  0  0  0  0  0  0  0  0
   -2.0661  -10.6994   18.1916 C   0  0  0  0  0  0  0  0  0  0  0  0
    5.2703   -7.5691   27.1123 C   0  0  0  0  0  0  0  0  0  0  0  0
    1.6204   -9.9887   17.2935 C   0  0  0  0  0  0  0  0  0  0  0  0
    1.8931   -7.9265   16.2047 C   0  0  0  0  0  0  0  0  0  0  0  0
    2.4396   -9.0801   16.7132 C   0  0  0  0  0  0  0  0  0  0  0  0
   -0.2575   -8.6234   16.8582 C   0  0  0  0  0  0  0  0  0  0  0  0
    4.0614   -7.0367   27.0106 N   0  0  0  0  0  0  0  0  0  0  0  0
   -2.9133  -11.6279   18.7578 C   0  0  0  0  0  0  0  0  0  0  0  0
    4.5688  -10.1291   29.5758 C   0  0  0  0  0  0  0  0  0  0  0  0
    2.1008   -9.0410   29.1852 N   0  0  0  0  0  0  0  0  0  0  0  0
    3.4829  -10.5697   30.2091 N   0  0  0  0  0  0  0  0  0  0  0  0
   -0.3363   -6.1172   27.5628 C   0  0  0  0  0  0  0  0  0  0  0  0
    3.0331   -7.4400   27.6362 C   0  0  0  0  0  0  0  0  0  0  0  0
    5.4553   -8.5933   27.9644 C   0  0  0  0  0  0  0  0  0  0  0  0
   -2.3870  -12.8440   19.2512 C   0  0  0  0  0  0  0  0  0  0  0  0
    0.5331   -7.6964   16.2751 C   0  0  0  0  0  0  0  0  0  0  0  0
   -0.6740  -10.8737   18.0482 C   0  0  0  0  0  0  0  0  0  0  0  0
    5.6751  -10.5870   29.7637 O   0  0  0  0  0  0  0  0  0  0  0  0
    1.7612   -5.6483   26.7172 C   0  0  0  0  0  0  0  0  0  0  0  0
    0.2221   -9.8326   17.4055 C   0  0  0  0  0  0  0  0  0  0  0  0
    4.3850   -9.0730   28.6745 C   0  0  0  0  0  0  0  0  0  0  0  0
  1  7  4  0
  1 22  4  0
  2 17  4  0
  2 20  4  0
  2 28  4  0
  3  6  1  0
  3 19  1  0
  4 19  1  0
  4 26  1  0
  5 17  4  0
  5 18  4  0
  6 20  1  0
  6 26  1  0
  7 24  4  0
  8 15  4  0
  8 24  4  0
  9 14  4  0
  9 21  4  0
 10 12  4  0
 10 27  4  0
 11 12  4  0
 11 23  4  0
 13 23  4  0
 13 27  4  0
 14 20  4  0
 15 22  4  0
 16 18  4  0
 16 25  2  0
 16 28  4  0
 21 28  4  0
 24 27  1  0
M  END
$$$$

 Created by Python create_sdf_string function

 28 31  0  0  0  0  0  0  0  0999 V2000
   -1.0054  -13.0622   19.1198 C   0  0  0  0  0  0  0  0  0  0  0  0
    3.1478   -8.5360   28.5161 C   0  0  0  0  0  0  0  0  0  0  0  0
    0.5798   -7.1906   27.9330 C   0  0  0  0  0  0  0  0  0  0  0  0
    0.3978   -5.1561   26.6955 C   0  0  0  0  0  0  0  0  0  0  0  0
    2.3063  -10.0533   30.0125 C   0  0  0  0  0  0  0  0  0  0  0  0
    1.8591   -6.8254   27.4685 N   0  0  0  0  0  0  0  0  0  0  0  0
   -0.2167  -12.1055   18.5568 C   0  0  0  0  0  0  0  0  0  0  0  0
   -2.0661  -10.6994   18.1916 C   0  0  0  0  0  0  0  0  0  0  0  0
    5.2703   -7.5691   27.1123 C   0  0  0  0  0  0  0  0  0  0  0  0
    1.6204   -9.9887   17.2935 C   0  0  0  0  0  0  0  0  0  0  0  0
    1.8931   -7.9265   16.2047 C   0  0  0  0  0  0  0  0  0  0  0  0
    2.4396   -9.0801   16.7132 C   0  0  0  0  0  0  0  0  0  0  0  0
   -0.2575   -8.6234   16.8582 C   0  0  0  0  0  0  0  0  0  0  0  0
    4.0614   -7.0367   27.0106 N   0  0  0  0  0  0  0  0  0  0  0  0
   -2.9133  -11.6279   18.7578 C   0  0  0  0  0  0  0  0  0  0  0  0
    4.5688  -10.1291   29.5758 C   0  0  0  0  0  0  0  0  0  0  0  0
    2.1008   -9.0410   29.1852 N   0  0  0  0  0  0  0  0  0  0  0  0
    3.4829  -10.5697   30.2091 N   0  0  0  0  0  0  0  0  0  0  0  0
   -0.3363   -6.1172   27.5628 C   0  0  0  0  0  0  0  0  0  0  0  0
    3.0331   -7.4400   27.6362 C   0  0  0  0  0  0  0  0  0  0  0  0
    5.4553   -8.5933   27.9644 C   0  0  0  0  0  0  0  0  0  0  0  0
   -2.3870  -12.8440   19.2512 C   0  0  0  0  0  0  0  0  0  0  0  0
    0.5331   -7.6964   16.2751 C   0  0  0  0  0  0  0  0  0  0  0  0
   -0.6740  -10.8737   18.0482 C   0  0  0  0  0  0  0  0  0  0  0  0
    5.6751  -10.5870   29.7637 O   0  0  0  0  0  0  0  0  0  0  0  0
    1.7612   -5.6483   26.7172 C   0  0  0  0  0  0  0  0  0  0  0  0
    0.2221   -9.8326   17.4055 C   0  0  0  0  0  0  0  0  0  0  0  0
    4.3850   -9.0730   28.6745 C   0  0  0  0  0  0  0  0  0  0  0  0
  1  7  4  0
  1 22  4  0
  2 17  4  0
  2 20  4  0
  2 28  4  0
  3  6  1  0
  3 19  1  0
  4 19  1  0
  4 26  1  0
  5 17  4  0
  5 18  4  0
  6 20  1  0
  6 26  1  0
  7 24  4  0
  8 15  4  0
  8 24  4  0
  9 14  4  0
  9 21  4  0
 10 12  4  0
 10 27  4  0
 11 12  4  0
 11 23  4  0
 13 23  4  0
 13 27  4  0
 14 20  4  0
 15 22  4  0
 16 18  4  0
 16 25  2  0
 16 28  4  0
 21 28  4  0
 24 27  1  0
M  END
$$$$

 Created by Python create_sdf_string function

 28 31  0  0  0  0  0  0  0  0999 V2000
   -1.0054  -13.0622   19.1198 C   0  0  0  0  0  0  0  0  0  0  0  0
    3.1478   -8.5360   28.5161 C   0  0  0  0  0  0  0  0  0  0  0  0
    0.5798   -7.1906   27.9330 C   0  0  0  0  0  0  0  0  0  0  0  0
    0.3978   -5.1561   26.6955 C   0  0  0  0  0  0  0  0  0  0  0  0
    2.3063  -10.0533   30.0125 C   0  0  0  0  0  0  0  0  0  0  0  0
    1.8591   -6.8254   27.4685 N   0  0  0  0  0  0  0  0  0  0  0  0
   -0.2167  -12.1055   18.5568 C   0  0  0  0  0  0  0  0  0  0  0  0
   -2.0661  -10.6994   18.1916 C   0  0  0  0  0  0  0  0  0  0  0  0
    5.2703   -7.5691   27.1123 C   0  0  0  0  0  0  0  0  0  0  0  0
    1.6204   -9.9887   17.2935 C   0  0  0  0  0  0  0  0  0  0  0  0
    1.8931   -7.9265   16.2047 C   0  0  0  0  0  0  0  0  0  0  0  0
    2.4396   -9.0801   16.7132 C   0  0  0  0  0  0  0  0  0  0  0  0
   -0.2575   -8.6234   16.8582 C   0  0  0  0  0  0  0  0  0  0  0  0
    4.0614   -7.0367   27.0106 N   0  0  0  0  0  0  0  0  0  0  0  0
   -2.9133  -11.6279   18.7578 C   0  0  0  0  0  0  0  0  0  0  0  0
    4.5688  -10.1291   29.5758 C   0  0  0  0  0  0  0  0  0  0  0  0
    2.1008   -9.0410   29.1852 N   0  0  0  0  0  0  0  0  0  0  0  0
    3.4829  -10.5697   30.2091 N   0  0  0  0  0  0  0  0  0  0  0  0
   -0.3363   -6.1172   27.5628 C   0  0  0  0  0  0  0  0  0  0  0  0
    3.0331   -7.4400   27.6362 C   0  0  0  0  0  0  0  0  0  0  0  0
    5.4553   -8.5933   27.9644 C   0  0  0  0  0  0  0  0  0  0  0  0
   -2.3870  -12.8440   19.2512 C   0  0  0  0  0  0  0  0  0  0  0  0
    0.5331   -7.6964   16.2751 C   0  0  0  0  0  0  0  0  0  0  0  0
   -0.6740  -10.8737   18.0482 C   0  0  0  0  0  0  0  0  0  0  0  0
    5.6751  -10.5870   29.7637 O   0  0  0  0  0  0  0  0  0  0  0  0
    1.7612   -5.6483   26.7172 C   0  0  0  0  0  0  0  0  0  0  0  0
    0.2221   -9.8326   17.4055 C   0  0  0  0  0  0  0  0  0  0  0  0
    4.3850   -9.0730   28.6745 C   0  0  0  0  0  0  0  0  0  0  0  0
  1  7  4  0
  1 22  4  0
  2 17  4  0
  2 20  4  0
  2 28  4  0
  3  6  1  0
  3 19  1  0
  4 19  1  0
  4 26  1  0
  5 17  4  0
  5 18  4  0
  6 20  1  0
  6 26  1  0
  7 24  4  0
  8 15  4  0
  8 24  4  0
  9 14  4  0
  9 21  4  0
 10 12  4  0
 10 27  4  0
 11 12  4  0
 11 23  4  0
 13 23  4  0
 13 27  4  0
 14 20  4  0
 15 22  4  0
 16 18  4  0
 16 25  2  0
 16 28  4  0
 21 28  4  0
 24 27  1  0
M  END
$$$$

 Created by Python create_sdf_string function

 28 31  0  0  0  0  0  0  0  0999 V2000
   -1.0054  -13.0622   19.1198 C   0  0  0  0  0  0  0  0  0  0  0  0
    3.1478   -8.5360   28.5161 C   0  0  0  0  0  0  0  0  0  0  0  0
    0.5798   -7.1906   27.9330 C   0  0  0  0  0  0  0  0  0  0  0  0
    0.3978   -5.1561   26.6955 C   0  0  0  0  0  0  0  0  0  0  0  0
    2.3063  -10.0533   30.0125 C   0  0  0  0  0  0  0  0  0  0  0  0
    1.8591   -6.8254   27.4685 N   0  0  0  0  0  0  0  0  0  0  0  0
   -0.2167  -12.1055   18.5568 C   0  0  0  0  0  0  0  0  0  0  0  0
   -2.0661  -10.6994   18.1916 C   0  0  0  0  0  0  0  0  0  0  0  0
    5.2703   -7.5691   27.1123 C   0  0  0  0  0  0  0  0  0  0  0  0
    1.6204   -9.9887   17.2935 C   0  0  0  0  0  0  0  0  0  0  0  0
    1.8931   -7.9265   16.2047 C   0  0  0  0  0  0  0  0  0  0  0  0
    2.4396   -9.0801   16.7132 C   0  0  0  0  0  0  0  0  0  0  0  0
   -0.2575   -8.6234   16.8582 C   0  0  0  0  0  0  0  0  0  0  0  0
    4.0614   -7.0367   27.0106 N   0  0  0  0  0  0  0  0  0  0  0  0
   -2.9133  -11.6279   18.7578 C   0  0  0  0  0  0  0  0  0  0  0  0
    4.5688  -10.1291   29.5758 C   0  0  0  0  0  0  0  0  0  0  0  0
    2.1008   -9.0410   29.1852 N   0  0  0  0  0  0  0  0  0  0  0  0
    3.4829  -10.5697   30.2091 N   0  0  0  0  0  0  0  0  0  0  0  0
   -0.3363   -6.1172   27.5628 C   0  0  0  0  0  0  0  0  0  0  0  0
    3.0331   -7.4400   27.6362 C   0  0  0  0  0  0  0  0  0  0  0  0
    5.4553   -8.5933   27.9644 C   0  0  0  0  0  0  0  0  0  0  0  0
   -2.3870  -12.8440   19.2512 C   0  0  0  0  0  0  0  0  0  0  0  0
    0.5331   -7.6964   16.2751 C   0  0  0  0  0  0  0  0  0  0  0  0
   -0.6740  -10.8737   18.0482 C   0  0  0  0  0  0  0  0  0  0  0  0
    5.6751  -10.5870   29.7637 O   0  0  0  0  0  0  0  0  0  0  0  0
    1.7612   -5.6483   26.7172 C   0  0  0  0  0  0  0  0  0  0  0  0
    0.2221   -9.8326   17.4055 C   0  0  0  0  0  0  0  0  0  0  0  0
    4.3850   -9.0730   28.6745 C   0  0  0  0  0  0  0  0  0  0  0  0
  1  7  4  0
  1 22  4  0
  2 17  4  0
  2 20  4  0
  2 28  4  0
  3  6  1  0
  3 19  1  0
  4 19  1  0
  4 26  1  0
  5 17  4  0
  5 18  4  0
  6 20  1  0
  6 26  1  0
  7 24  4  0
  8 15  4  0
  8 24  4  0
  9 14  4  0
  9 21  4  0
 10 12  4  0
 10 27  4  0
 11 12  4  0
 11 23  4  0
 13 23  4  0
 13 27  4  0
 14 20  4  0
 15 22  4  0
 16 18  4  0
 16 25  2  0
 16 28  4  0
 21 28  4  0
 24 27  1  0
M  END
$$$$

 Created by Python create_sdf_string function

 28 31  0  0  0  0  0  0  0  0999 V2000
   -1.0054  -13.0622   19.1198 C   0  0  0  0  0  0  0  0  0  0  0  0
    3.1478   -8.5360   28.5161 C   0  0  0  0  0  0  0  0  0  0  0  0
    0.5798   -7.1906   27.9330 C   0  0  0  0  0  0  0  0  0  0  0  0
    0.3978   -5.1561   26.6955 C   0  0  0  0  0  0  0  0  0  0  0  0
    2.3063  -10.0533   30.0125 C   0  0  0  0  0  0  0  0  0  0  0  0
    1.8591   -6.8254   27.4685 N   0  0  0  0  0  0  0  0  0  0  0  0
   -0.2167  -12.1055   18.5568 C   0  0  0  0  0  0  0  0  0  0  0  0
   -2.0661  -10.6994   18.1916 C   0  0  0  0  0  0  0  0  0  0  0  0
    5.2703   -7.5691   27.1123 C   0  0  0  0  0  0  0  0  0  0  0  0
    1.6204   -9.9887   17.2935 C   0  0  0  0  0  0  0  0  0  0  0  0
    1.8931   -7.9265   16.2047 C   0  0  0  0  0  0  0  0  0  0  0  0
    2.4396   -9.0801   16.7132 C   0  0  0  0  0  0  0  0  0  0  0  0
   -0.2575   -8.6234   16.8582 C   0  0  0  0  0  0  0  0  0  0  0  0
    4.0614   -7.0367   27.0106 N   0  0  0  0  0  0  0  0  0  0  0  0
   -2.9133  -11.6279   18.7578 C   0  0  0  0  0  0  0  0  0  0  0  0
    4.5688  -10.1291   29.5758 C   0  0  0  0  0  0  0  0  0  0  0  0
    2.1008   -9.0410   29.1852 N   0  0  0  0  0  0  0  0  0  0  0  0
    3.4829  -10.5697   30.2091 N   0  0  0  0  0  0  0  0  0  0  0  0
   -0.3363   -6.1172   27.5628 C   0  0  0  0  0  0  0  0  0  0  0  0
    3.0331   -7.4400   27.6362 C   0  0  0  0  0  0  0  0  0  0  0  0
    5.4553   -8.5933   27.9644 C   0  0  0  0  0  0  0  0  0  0  0  0
   -2.3870  -12.8440   19.2512 C   0  0  0  0  0  0  0  0  0  0  0  0
    0.5331   -7.6964   16.2751 C   0  0  0  0  0  0  0  0  0  0  0  0
   -0.6740  -10.8737   18.0482 C   0  0  0  0  0  0  0  0  0  0  0  0
    5.6751  -10.5870   29.7637 O   0  0  0  0  0  0  0  0  0  0  0  0
    1.7612   -5.6483   26.7172 C   0  0  0  0  0  0  0  0  0  0  0  0
    0.2221   -9.8326   17.4055 C   0  0  0  0  0  0  0  0  0  0  0  0
    4.3850   -9.0730   28.6745 C   0  0  0  0  0  0  0  0  0  0  0  0
  1  7  4  0
  1 22  4  0
  2 17  4  0
  2 20  4  0
  2 28  4  0
  3  6  1  0
  3 19  1  0
  4 19  1  0
  4 26  1  0
  5 17  4  0
  5 18  4  0
  6 20  1  0
  6 26  1  0
  7 24  4  0
  8 15  4  0
  8 24  4  0
  9 14  4  0
  9 21  4  0
 10 12  4  0
 10 27  4  0
 11 12  4  0
 11 23  4  0
 13 23  4  0
 13 27  4  0
 14 20  4  0
 15 22  4  0
 16 18  4  0
 16 25  2  0
 16 28  4  0
 21 28  4  0
 24 27  1  0
M  END
$$$$

 Created by Python create_sdf_string function

 28 31  0  0  0  0  0  0  0  0999 V2000
   -1.0054  -13.0622   19.1198 C   0  0  0  0  0  0  0  0  0  0  0  0
    3.1478   -8.5360   28.5161 C   0  0  0  0  0  0  0  0  0  0  0  0
    0.5798   -7.1906   27.9330 C   0  0  0  0  0  0  0  0  0  0  0  0
    0.3978   -5.1561   26.6955 C   0  0  0  0  0  0  0  0  0  0  0  0
    2.3063  -10.0533   30.0125 C   0  0  0  0  0  0  0  0  0  0  0  0
    1.8591   -6.8254   27.4685 N   0  0  0  0  0  0  0  0  0  0  0  0
   -0.2167  -12.1055   18.5568 C   0  0  0  0  0  0  0  0  0  0  0  0
   -2.0661  -10.6994   18.1916 C   0  0  0  0  0  0  0  0  0  0  0  0
    5.2703   -7.5691   27.1123 C   0  0  0  0  0  0  0  0  0  0  0  0
    1.6204   -9.9887   17.2935 C   0  0  0  0  0  0  0  0  0  0  0  0
    1.8931   -7.9265   16.2047 C   0  0  0  0  0  0  0  0  0  0  0  0
    2.4396   -9.0801   16.7132 C   0  0  0  0  0  0  0  0  0  0  0  0
   -0.2575   -8.6234   16.8582 C   0  0  0  0  0  0  0  0  0  0  0  0
    4.0614   -7.0367   27.0106 N   0  0  0  0  0  0  0  0  0  0  0  0
   -2.9133  -11.6279   18.7578 C   0  0  0  0  0  0  0  0  0  0  0  0
    4.5688  -10.1291   29.5758 C   0  0  0  0  0  0  0  0  0  0  0  0
    2.1008   -9.0410   29.1852 N   0  0  0  0  0  0  0  0  0  0  0  0
    3.4829  -10.5697   30.2091 N   0  0  0  0  0  0  0  0  0  0  0  0
   -0.3363   -6.1172   27.5628 C   0  0  0  0  0  0  0  0  0  0  0  0
    3.0331   -7.4400   27.6362 C   0  0  0  0  0  0  0  0  0  0  0  0
    5.4553   -8.5933   27.9644 C   0  0  0  0  0  0  0  0  0  0  0  0
   -2.3870  -12.8440   19.2512 C   0  0  0  0  0  0  0  0  0  0  0  0
    0.5331   -7.6964   16.2751 C   0  0  0  0  0  0  0  0  0  0  0  0
   -0.6740  -10.8737   18.0482 C   0  0  0  0  0  0  0  0  0  0  0  0
    5.6751  -10.5870   29.7637 O   0  0  0  0  0  0  0  0  0  0  0  0
    1.7612   -5.6483   26.7172 C   0  0  0  0  0  0  0  0  0  0  0  0
    0.2221   -9.8326   17.4055 C   0  0  0  0  0  0  0  0  0  0  0  0
    4.3850   -9.0730   28.6745 C   0  0  0  0  0  0  0  0  0  0  0  0
  1  7  4  0
  1 22  4  0
  2 17  4  0
  2 20  4  0
  2 28  4  0
  3  6  1  0
  3 19  1  0
  4 19  1  0
  4 26  1  0
  5 17  4  0
  5 18  4  0
  6 20  1  0
  6 26  1  0
  7 24  4  0
  8 15  4  0
  8 24  4  0
  9 14  4  0
  9 21  4  0
 10 12  4  0
 10 27  4  0
 11 12  4  0
 11 23  4  0
 13 23  4  0
 13 27  4  0
 14 20  4  0
 15 22  4  0
 16 18  4  0
 16 25  2  0
 16 28  4  0
 21 28  4  0
 24 27  1  0
M  END
$$$$

 Created by Python create_sdf_string function

 28 31  0  0  0  0  0  0  0  0999 V2000
   -1.0054  -13.0622   19.1198 C   0  0  0  0  0  0  0  0  0  0  0  0
    3.1478   -8.5360   28.5161 C   0  0  0  0  0  0  0  0  0  0  0  0
    0.5798   -7.1906   27.9330 C   0  0  0  0  0  0  0  0  0  0  0  0
    0.3978   -5.1561   26.6955 C   0  0  0  0  0  0  0  0  0  0  0  0
    2.3063  -10.0533   30.0125 C   0  0  0  0  0  0  0  0  0  0  0  0
    1.8591   -6.8254   27.4685 N   0  0  0  0  0  0  0  0  0  0  0  0
   -0.2167  -12.1055   18.5568 C   0  0  0  0  0  0  0  0  0  0  0  0
   -2.0661  -10.6994   18.1916 C   0  0  0  0  0  0  0  0  0  0  0  0
    5.2703   -7.5691   27.1123 C   0  0  0  0  0  0  0  0  0  0  0  0
    1.6204   -9.9887   17.2935 C   0  0  0  0  0  0  0  0  0  0  0  0
    1.8931   -7.9265   16.2047 C   0  0  0  0  0  0  0  0  0  0  0  0
    2.4396   -9.0801   16.7132 C   0  0  0  0  0  0  0  0  0  0  0  0
   -0.2575   -8.6234   16.8582 C   0  0  0  0  0  0  0  0  0  0  0  0
    4.0614   -7.0367   27.0106 N   0  0  0  0  0  0  0  0  0  0  0  0
   -2.9133  -11.6279   18.7578 C   0  0  0  0  0  0  0  0  0  0  0  0
    4.5688  -10.1291   29.5758 C   0  0  0  0  0  0  0  0  0  0  0  0
    2.1008   -9.0410   29.1852 N   0  0  0  0  0  0  0  0  0  0  0  0
    3.4829  -10.5697   30.2091 N   0  0  0  0  0  0  0  0  0  0  0  0
   -0.3363   -6.1172   27.5628 C   0  0  0  0  0  0  0  0  0  0  0  0
    3.0331   -7.4400   27.6362 C   0  0  0  0  0  0  0  0  0  0  0  0
    5.4553   -8.5933   27.9644 C   0  0  0  0  0  0  0  0  0  0  0  0
   -2.3870  -12.8440   19.2512 C   0  0  0  0  0  0  0  0  0  0  0  0
    0.5331   -7.6964   16.2751 C   0  0  0  0  0  0  0  0  0  0  0  0
   -0.6740  -10.8737   18.0482 C   0  0  0  0  0  0  0  0  0  0  0  0
    5.6751  -10.5870   29.7637 O   0  0  0  0  0  0  0  0  0  0  0  0
    1.7612   -5.6483   26.7172 C   0  0  0  0  0  0  0  0  0  0  0  0
    0.2221   -9.8326   17.4055 C   0  0  0  0  0  0  0  0  0  0  0  0
    4.3850   -9.0730   28.6745 C   0  0  0  0  0  0  0  0  0  0  0  0
  1  7  4  0
  1 22  4  0
  2 17  4  0
  2 20  4  0
  2 28  4  0
  3  6  1  0
  3 19  1  0
  4 19  1  0
  4 26  1  0
  5 17  4  0
  5 18  4  0
  6 20  1  0
  6 26  1  0
  7 24  4  0
  8 15  4  0
  8 24  4  0
  9 14  4  0
  9 21  4  0
 10 12  4  0
 10 27  4  0
 11 12  4  0
 11 23  4  0
 13 23  4  0
 13 27  4  0
 14 20  4  0
 15 22  4  0
 16 18  4  0
 16 25  2  0
 16 28  4  0
 21 28  4  0
 24 27  1  0
M  END
$$$$

 Created by Python create_sdf_string function

 28 31  0  0  0  0  0  0  0  0999 V2000
   -1.0054  -13.0622   19.1198 C   0  0  0  0  0  0  0  0  0  0  0  0
    3.1478   -8.5360   28.5161 C   0  0  0  0  0  0  0  0  0  0  0  0
    0.5798   -7.1906   27.9330 C   0  0  0  0  0  0  0  0  0  0  0  0
    0.3978   -5.1561   26.6955 C   0  0  0  0  0  0  0  0  0  0  0  0
    2.3063  -10.0533   30.0125 C   0  0  0  0  0  0  0  0  0  0  0  0
    1.8591   -6.8254   27.4685 N   0  0  0  0  0  0  0  0  0  0  0  0
   -0.2167  -12.1055   18.5568 C   0  0  0  0  0  0  0  0  0  0  0  0
   -2.0661  -10.6994   18.1916 C   0  0  0  0  0  0  0  0  0  0  0  0
    5.2703   -7.5691   27.1123 C   0  0  0  0  0  0  0  0  0  0  0  0
    1.6204   -9.9887   17.2935 C   0  0  0  0  0  0  0  0  0  0  0  0
    1.8931   -7.9265   16.2047 C   0  0  0  0  0  0  0  0  0  0  0  0
    2.4396   -9.0801   16.7132 C   0  0  0  0  0  0  0  0  0  0  0  0
   -0.2575   -8.6234   16.8582 C   0  0  0  0  0  0  0  0  0  0  0  0
    4.0614   -7.0367   27.0106 N   0  0  0  0  0  0  0  0  0  0  0  0
   -2.9133  -11.6279   18.7578 C   0  0  0  0  0  0  0  0  0  0  0  0
    4.5688  -10.1291   29.5758 C   0  0  0  0  0  0  0  0  0  0  0  0
    2.1008   -9.0410   29.1852 N   0  0  0  0  0  0  0  0  0  0  0  0
    3.4829  -10.5697   30.2091 N   0  0  0  0  0  0  0  0  0  0  0  0
   -0.3363   -6.1172   27.5628 C   0  0  0  0  0  0  0  0  0  0  0  0
    3.0331   -7.4400   27.6362 C   0  0  0  0  0  0  0  0  0  0  0  0
    5.4553   -8.5933   27.9644 C   0  0  0  0  0  0  0  0  0  0  0  0
   -2.3870  -12.8440   19.2512 C   0  0  0  0  0  0  0  0  0  0  0  0
    0.5331   -7.6964   16.2751 C   0  0  0  0  0  0  0  0  0  0  0  0
   -0.6740  -10.8737   18.0482 C   0  0  0  0  0  0  0  0  0  0  0  0
    5.6751  -10.5870   29.7637 O   0  0  0  0  0  0  0  0  0  0  0  0
    1.7612   -5.6483   26.7172 C   0  0  0  0  0  0  0  0  0  0  0  0
    0.2221   -9.8326   17.4055 C   0  0  0  0  0  0  0  0  0  0  0  0
    4.3850   -9.0730   28.6745 C   0  0  0  0  0  0  0  0  0  0  0  0
  1  7  4  0
  1 22  4  0
  2 17  4  0
  2 20  4  0
  2 28  4  0
  3  6  1  0
  3 19  1  0
  4 19  1  0
  4 26  1  0
  5 17  4  0
  5 18  4  0
  6 20  1  0
  6 26  1  0
  7 24  4  0
  8 15  4  0
  8 24  4  0
  9 14  4  0
  9 21  4  0
 10 12  4  0
 10 27  4  0
 11 12  4  0
 11 23  4  0
 13 23  4  0
 13 27  4  0
 14 20  4  0
 15 22  4  0
 16 18  4  0
 16 25  2  0
 16 28  4  0
 21 28  4  0
 24 27  1  0
M  END
$$$$

 Created by Python create_sdf_string function

 28 31  0  0  0  0  0  0  0  0999 V2000
   -1.0054  -13.0622   19.1198 C   0  0  0  0  0  0  0  0  0  0  0  0
    3.1478   -8.5360   28.5161 C   0  0  0  0  0  0  0  0  0  0  0  0
    0.5798   -7.1906   27.9330 C   0  0  0  0  0  0  0  0  0  0  0  0
    0.3978   -5.1561   26.6955 C   0  0  0  0  0  0  0  0  0  0  0  0
    2.3063  -10.0533   30.0125 C   0  0  0  0  0  0  0  0  0  0  0  0
    1.8591   -6.8254   27.4685 N   0  0  0  0  0  0  0  0  0  0  0  0
   -0.2167  -12.1055   18.5568 C   0  0  0  0  0  0  0  0  0  0  0  0
   -2.0661  -10.6994   18.1916 C   0  0  0  0  0  0  0  0  0  0  0  0
    5.2703   -7.5691   27.1123 C   0  0  0  0  0  0  0  0  0  0  0  0
    1.6204   -9.9887   17.2935 C   0  0  0  0  0  0  0  0  0  0  0  0
    1.8931   -7.9265   16.2047 C   0  0  0  0  0  0  0  0  0  0  0  0
    2.4396   -9.0801   16.7132 C   0  0  0  0  0  0  0  0  0  0  0  0
   -0.2575   -8.6234   16.8582 C   0  0  0  0  0  0  0  0  0  0  0  0
    4.0614   -7.0367   27.0106 N   0  0  0  0  0  0  0  0  0  0  0  0
   -2.9133  -11.6279   18.7578 C   0  0  0  0  0  0  0  0  0  0  0  0
    4.5688  -10.1291   29.5758 C   0  0  0  0  0  0  0  0  0  0  0  0
    2.1008   -9.0410   29.1852 N   0  0  0  0  0  0  0  0  0  0  0  0
    3.4829  -10.5697   30.2091 N   0  0  0  0  0  0  0  0  0  0  0  0
   -0.3363   -6.1172   27.5628 C   0  0  0  0  0  0  0  0  0  0  0  0
    3.0331   -7.4400   27.6362 C   0  0  0  0  0  0  0  0  0  0  0  0
    5.4553   -8.5933   27.9644 C   0  0  0  0  0  0  0  0  0  0  0  0
   -2.3870  -12.8440   19.2512 C   0  0  0  0  0  0  0  0  0  0  0  0
    0.5331   -7.6964   16.2751 C   0  0  0  0  0  0  0  0  0  0  0  0
   -0.6740  -10.8737   18.0482 C   0  0  0  0  0  0  0  0  0  0  0  0
    5.6751  -10.5870   29.7637 O   0  0  0  0  0  0  0  0  0  0  0  0
    1.7612   -5.6483   26.7172 C   0  0  0  0  0  0  0  0  0  0  0  0
    0.2221   -9.8326   17.4055 C   0  0  0  0  0  0  0  0  0  0  0  0
    4.3850   -9.0730   28.6745 C   0  0  0  0  0  0  0  0  0  0  0  0
  1  7  4  0
  1 22  4  0
  2 17  4  0
  2 20  4  0
  2 28  4  0
  3  6  1  0
  3 19  1  0
  4 19  1  0
  4 26  1  0
  5 17  4  0
  5 18  4  0
  6 20  1  0
  6 26  1  0
  7 24  4  0
  8 15  4  0
  8 24  4  0
  9 14  4  0
  9 21  4  0
 10 12  4  0
 10 27  4  0
 11 12  4  0
 11 23  4  0
 13 23  4  0
 13 27  4  0
 14 20  4  0
 15 22  4  0
 16 18  4  0
 16 25  2  0
 16 28  4  0
 21 28  4  0
 24 27  1  0
M  END
$$$$

 Created by Python create_sdf_string function

 28 31  0  0  0  0  0  0  0  0999 V2000
   -1.0054  -13.0622   19.1198 C   0  0  0  0  0  0  0  0  0  0  0  0
    3.1478   -8.5360   28.5161 C   0  0  0  0  0  0  0  0  0  0  0  0
    0.5798   -7.1906   27.9330 C   0  0  0  0  0  0  0  0  0  0  0  0
    0.3978   -5.1561   26.6955 C   0  0  0  0  0  0  0  0  0  0  0  0
    2.3063  -10.0533   30.0125 C   0  0  0  0  0  0  0  0  0  0  0  0
    1.8591   -6.8254   27.4685 N   0  0  0  0  0  0  0  0  0  0  0  0
   -0.2167  -12.1055   18.5568 C   0  0  0  0  0  0  0  0  0  0  0  0
   -2.0661  -10.6994   18.1916 C   0  0  0  0  0  0  0  0  0  0  0  0
    5.2703   -7.5691   27.1123 C   0  0  0  0  0  0  0  0  0  0  0  0
    1.6204   -9.9887   17.2935 C   0  0  0  0  0  0  0  0  0  0  0  0
    1.8931   -7.9265   16.2047 C   0  0  0  0  0  0  0  0  0  0  0  0
    2.4396   -9.0801   16.7132 C   0  0  0  0  0  0  0  0  0  0  0  0
   -0.2575   -8.6234   16.8582 C   0  0  0  0  0  0  0  0  0  0  0  0
    4.0614   -7.0367   27.0106 N   0  0  0  0  0  0  0  0  0  0  0  0
   -2.9133  -11.6279   18.7578 C   0  0  0  0  0  0  0  0  0  0  0  0
    4.5688  -10.1291   29.5758 C   0  0  0  0  0  0  0  0  0  0  0  0
    2.1008   -9.0410   29.1852 N   0  0  0  0  0  0  0  0  0  0  0  0
    3.4829  -10.5697   30.2091 N   0  0  0  0  0  0  0  0  0  0  0  0
   -0.3363   -6.1172   27.5628 C   0  0  0  0  0  0  0  0  0  0  0  0
    3.0331   -7.4400   27.6362 C   0  0  0  0  0  0  0  0  0  0  0  0
    5.4553   -8.5933   27.9644 C   0  0  0  0  0  0  0  0  0  0  0  0
   -2.3870  -12.8440   19.2512 C   0  0  0  0  0  0  0  0  0  0  0  0
    0.5331   -7.6964   16.2751 C   0  0  0  0  0  0  0  0  0  0  0  0
   -0.6740  -10.8737   18.0482 C   0  0  0  0  0  0  0  0  0  0  0  0
    5.6751  -10.5870   29.7637 O   0  0  0  0  0  0  0  0  0  0  0  0
    1.7612   -5.6483   26.7172 C   0  0  0  0  0  0  0  0  0  0  0  0
    0.2221   -9.8326   17.4055 C   0  0  0  0  0  0  0  0  0  0  0  0
    4.3850   -9.0730   28.6745 C   0  0  0  0  0  0  0  0  0  0  0  0
  1  7  4  0
  1 22  4  0
  2 17  4  0
  2 20  4  0
  2 28  4  0
  3  6  1  0
  3 19  1  0
  4 19  1  0
  4 26  1  0
  5 17  4  0
  5 18  4  0
  6 20  1  0
  6 26  1  0
  7 24  4  0
  8 15  4  0
  8 24  4  0
  9 14  4  0
  9 21  4  0
 10 12  4  0
 10 27  4  0
 11 12  4  0
 11 23  4  0
 13 23  4  0
 13 27  4  0
 14 20  4  0
 15 22  4  0
 16 18  4  0
 16 25  2  0
 16 28  4  0
 21 28  4  0
 24 27  1  0
M  END
$$$$

 Created by Python create_sdf_string function

 28 31  0  0  0  0  0  0  0  0999 V2000
   -1.0054  -13.0622   19.1198 C   0  0  0  0  0  0  0  0  0  0  0  0
    3.1478   -8.5360   28.5161 C   0  0  0  0  0  0  0  0  0  0  0  0
    0.5798   -7.1906   27.9330 C   0  0  0  0  0  0  0  0  0  0  0  0
    0.3978   -5.1561   26.6955 C   0  0  0  0  0  0  0  0  0  0  0  0
    2.3063  -10.0533   30.0125 C   0  0  0  0  0  0  0  0  0  0  0  0
    1.8591   -6.8254   27.4685 N   0  0  0  0  0  0  0  0  0  0  0  0
   -0.2167  -12.1055   18.5568 C   0  0  0  0  0  0  0  0  0  0  0  0
   -2.0661  -10.6994   18.1916 C   0  0  0  0  0  0  0  0  0  0  0  0
    5.2703   -7.5691   27.1123 C   0  0  0  0  0  0  0  0  0  0  0  0
    1.6204   -9.9887   17.2935 C   0  0  0  0  0  0  0  0  0  0  0  0
    1.8931   -7.9265   16.2047 C   0  0  0  0  0  0  0  0  0  0  0  0
    2.4396   -9.0801   16.7132 C   0  0  0  0  0  0  0  0  0  0  0  0
   -0.2575   -8.6234   16.8582 C   0  0  0  0  0  0  0  0  0  0  0  0
    4.0614   -7.0367   27.0106 N   0  0  0  0  0  0  0  0  0  0  0  0
   -2.9133  -11.6279   18.7578 C   0  0  0  0  0  0  0  0  0  0  0  0
    4.5688  -10.1291   29.5758 C   0  0  0  0  0  0  0  0  0  0  0  0
    2.1008   -9.0410   29.1852 N   0  0  0  0  0  0  0  0  0  0  0  0
    3.4829  -10.5697   30.2091 N   0  0  0  0  0  0  0  0  0  0  0  0
   -0.3363   -6.1172   27.5628 C   0  0  0  0  0  0  0  0  0  0  0  0
    3.0331   -7.4400   27.6362 C   0  0  0  0  0  0  0  0  0  0  0  0
    5.4553   -8.5933   27.9644 C   0  0  0  0  0  0  0  0  0  0  0  0
   -2.3870  -12.8440   19.2512 C   0  0  0  0  0  0  0  0  0  0  0  0
    0.5331   -7.6964   16.2751 C   0  0  0  0  0  0  0  0  0  0  0  0
   -0.6740  -10.8737   18.0482 C   0  0  0  0  0  0  0  0  0  0  0  0
    5.6751  -10.5870   29.7637 O   0  0  0  0  0  0  0  0  0  0  0  0
    1.7612   -5.6483   26.7172 C   0  0  0  0  0  0  0  0  0  0  0  0
    0.2221   -9.8326   17.4055 C   0  0  0  0  0  0  0  0  0  0  0  0
    4.3850   -9.0730   28.6745 C   0  0  0  0  0  0  0  0  0  0  0  0
  1  7  4  0
  1 22  4  0
  2 17  4  0
  2 20  4  0
  2 28  4  0
  3  6  1  0
  3 19  1  0
  4 19  1  0
  4 26  1  0
  5 17  4  0
  5 18  4  0
  6 20  1  0
  6 26  1  0
  7 24  4  0
  8 15  4  0
  8 24  4  0
  9 14  4  0
  9 21  4  0
 10 12  4  0
 10 27  4  0
 11 12  4  0
 11 23  4  0
 13 23  4  0
 13 27  4  0
 14 20  4  0
 15 22  4  0
 16 18  4  0
 16 25  2  0
 16 28  4  0
 21 28  4  0
 24 27  1  0
M  END
$$$$

 Created by Python create_sdf_string function

 28 31  0  0  0  0  0  0  0  0999 V2000
   -1.0054  -13.0622   19.1198 C   0  0  0  0  0  0  0  0  0  0  0  0
    3.1478   -8.5360   28.5161 C   0  0  0  0  0  0  0  0  0  0  0  0
    0.5798   -7.1906   27.9330 C   0  0  0  0  0  0  0  0  0  0  0  0
    0.3978   -5.1561   26.6955 C   0  0  0  0  0  0  0  0  0  0  0  0
    2.3063  -10.0533   30.0125 C   0  0  0  0  0  0  0  0  0  0  0  0
    1.8591   -6.8254   27.4685 N   0  0  0  0  0  0  0  0  0  0  0  0
   -0.2167  -12.1055   18.5568 C   0  0  0  0  0  0  0  0  0  0  0  0
   -2.0661  -10.6994   18.1916 C   0  0  0  0  0  0  0  0  0  0  0  0
    5.2703   -7.5691   27.1123 C   0  0  0  0  0  0  0  0  0  0  0  0
    1.6204   -9.9887   17.2935 C   0  0  0  0  0  0  0  0  0  0  0  0
    1.8931   -7.9265   16.2047 C   0  0  0  0  0  0  0  0  0  0  0  0
    2.4396   -9.0801   16.7132 C   0  0  0  0  0  0  0  0  0  0  0  0
   -0.2575   -8.6234   16.8582 C   0  0  0  0  0  0  0  0  0  0  0  0
    4.0614   -7.0367   27.0106 N   0  0  0  0  0  0  0  0  0  0  0  0
   -2.9133  -11.6279   18.7578 C   0  0  0  0  0  0  0  0  0  0  0  0
    4.5688  -10.1291   29.5758 C   0  0  0  0  0  0  0  0  0  0  0  0
    2.1008   -9.0410   29.1852 N   0  0  0  0  0  0  0  0  0  0  0  0
    3.4829  -10.5697   30.2091 N   0  0  0  0  0  0  0  0  0  0  0  0
   -0.3363   -6.1172   27.5628 C   0  0  0  0  0  0  0  0  0  0  0  0
    3.0331   -7.4400   27.6362 C   0  0  0  0  0  0  0  0  0  0  0  0
    5.4553   -8.5933   27.9644 C   0  0  0  0  0  0  0  0  0  0  0  0
   -2.3870  -12.8440   19.2512 C   0  0  0  0  0  0  0  0  0  0  0  0
    0.5331   -7.6964   16.2751 C   0  0  0  0  0  0  0  0  0  0  0  0
   -0.6740  -10.8737   18.0482 C   0  0  0  0  0  0  0  0  0  0  0  0
    5.6751  -10.5870   29.7637 O   0  0  0  0  0  0  0  0  0  0  0  0
    1.7612   -5.6483   26.7172 C   0  0  0  0  0  0  0  0  0  0  0  0
    0.2221   -9.8326   17.4055 C   0  0  0  0  0  0  0  0  0  0  0  0
    4.3850   -9.0730   28.6745 C   0  0  0  0  0  0  0  0  0  0  0  0
  1  7  4  0
  1 22  4  0
  2 17  4  0
  2 20  4  0
  2 28  4  0
  3  6  1  0
  3 19  1  0
  4 19  1  0
  4 26  1  0
  5 17  4  0
  5 18  4  0
  6 20  1  0
  6 26  1  0
  7 24  4  0
  8 15  4  0
  8 24  4  0
  9 14  4  0
  9 21  4  0
 10 12  4  0
 10 27  4  0
 11 12  4  0
 11 23  4  0
 13 23  4  0
 13 27  4  0
 14 20  4  0
 15 22  4  0
 16 18  4  0
 16 25  2  0
 16 28  4  0
 21 28  4  0
 24 27  1  0
M  END
$$$$

 Created by Python create_sdf_string function

 28 31  0  0  0  0  0  0  0  0999 V2000
   -1.0054  -13.0622   19.1198 C   0  0  0  0  0  0  0  0  0  0  0  0
    3.1478   -8.5360   28.5161 C   0  0  0  0  0  0  0  0  0  0  0  0
    0.5798   -7.1906   27.9330 C   0  0  0  0  0  0  0  0  0  0  0  0
    0.3978   -5.1561   26.6955 C   0  0  0  0  0  0  0  0  0  0  0  0
    2.3063  -10.0533   30.0125 C   0  0  0  0  0  0  0  0  0  0  0  0
    1.8591   -6.8254   27.4685 N   0  0  0  0  0  0  0  0  0  0  0  0
   -0.2167  -12.1055   18.5568 C   0  0  0  0  0  0  0  0  0  0  0  0
   -2.0661  -10.6994   18.1916 C   0  0  0  0  0  0  0  0  0  0  0  0
    5.2703   -7.5691   27.1123 C   0  0  0  0  0  0  0  0  0  0  0  0
    1.6204   -9.9887   17.2935 C   0  0  0  0  0  0  0  0  0  0  0  0
    1.8931   -7.9265   16.2047 C   0  0  0  0  0  0  0  0  0  0  0  0
    2.4396   -9.0801   16.7132 C   0  0  0  0  0  0  0  0  0  0  0  0
   -0.2575   -8.6234   16.8582 C   0  0  0  0  0  0  0  0  0  0  0  0
    4.0614   -7.0367   27.0106 N   0  0  0  0  0  0  0  0  0  0  0  0
   -2.9133  -11.6279   18.7578 C   0  0  0  0  0  0  0  0  0  0  0  0
    4.5688  -10.1291   29.5758 C   0  0  0  0  0  0  0  0  0  0  0  0
    2.1008   -9.0410   29.1852 N   0  0  0  0  0  0  0  0  0  0  0  0
    3.4829  -10.5697   30.2091 N   0  0  0  0  0  0  0  0  0  0  0  0
   -0.3363   -6.1172   27.5628 C   0  0  0  0  0  0  0  0  0  0  0  0
    3.0331   -7.4400   27.6362 C   0  0  0  0  0  0  0  0  0  0  0  0
    5.4553   -8.5933   27.9644 C   0  0  0  0  0  0  0  0  0  0  0  0
   -2.3870  -12.8440   19.2512 C   0  0  0  0  0  0  0  0  0  0  0  0
    0.5331   -7.6964   16.2751 C   0  0  0  0  0  0  0  0  0  0  0  0
   -0.6740  -10.8737   18.0482 C   0  0  0  0  0  0  0  0  0  0  0  0
    5.6751  -10.5870   29.7637 O   0  0  0  0  0  0  0  0  0  0  0  0
    1.7612   -5.6483   26.7172 C   0  0  0  0  0  0  0  0  0  0  0  0
    0.2221   -9.8326   17.4055 C   0  0  0  0  0  0  0  0  0  0  0  0
    4.3850   -9.0730   28.6745 C   0  0  0  0  0  0  0  0  0  0  0  0
  1  7  4  0
  1 22  4  0
  2 17  4  0
  2 20  4  0
  2 28  4  0
  3  6  1  0
  3 19  1  0
  4 19  1  0
  4 26  1  0
  5 17  4  0
  5 18  4  0
  6 20  1  0
  6 26  1  0
  7 24  4  0
  8 15  4  0
  8 24  4  0
  9 14  4  0
  9 21  4  0
 10 12  4  0
 10 27  4  0
 11 12  4  0
 11 23  4  0
 13 23  4  0
 13 27  4  0
 14 20  4  0
 15 22  4  0
 16 18  4  0
 16 25  2  0
 16 28  4  0
 21 28  4  0
 24 27  1  0
M  END
$$$$

 Created by Python create_sdf_string function

 28 31  0  0  0  0  0  0  0  0999 V2000
   -1.0054  -13.0622   19.1198 C   0  0  0  0  0  0  0  0  0  0  0  0
    3.1478   -8.5360   28.5161 C   0  0  0  0  0  0  0  0  0  0  0  0
    0.5798   -7.1906   27.9330 C   0  0  0  0  0  0  0  0  0  0  0  0
    0.3978   -5.1561   26.6955 C   0  0  0  0  0  0  0  0  0  0  0  0
    2.3063  -10.0533   30.0125 C   0  0  0  0  0  0  0  0  0  0  0  0
    1.8591   -6.8254   27.4685 N   0  0  0  0  0  0  0  0  0  0  0  0
   -0.2167  -12.1055   18.5568 C   0  0  0  0  0  0  0  0  0  0  0  0
   -2.0661  -10.6994   18.1916 C   0  0  0  0  0  0  0  0  0  0  0  0
    5.2703   -7.5691   27.1123 C   0  0  0  0  0  0  0  0  0  0  0  0
    1.6204   -9.9887   17.2935 C   0  0  0  0  0  0  0  0  0  0  0  0
    1.8931   -7.9265   16.2047 C   0  0  0  0  0  0  0  0  0  0  0  0
    2.4396   -9.0801   16.7132 C   0  0  0  0  0  0  0  0  0  0  0  0
   -0.2575   -8.6234   16.8582 C   0  0  0  0  0  0  0  0  0  0  0  0
    4.0614   -7.0367   27.0106 N   0  0  0  0  0  0  0  0  0  0  0  0
   -2.9133  -11.6279   18.7578 C   0  0  0  0  0  0  0  0  0  0  0  0
    4.5688  -10.1291   29.5758 C   0  0  0  0  0  0  0  0  0  0  0  0
    2.1008   -9.0410   29.1852 N   0  0  0  0  0  0  0  0  0  0  0  0
    3.4829  -10.5697   30.2091 N   0  0  0  0  0  0  0  0  0  0  0  0
   -0.3363   -6.1172   27.5628 C   0  0  0  0  0  0  0  0  0  0  0  0
    3.0331   -7.4400   27.6362 C   0  0  0  0  0  0  0  0  0  0  0  0
    5.4553   -8.5933   27.9644 C   0  0  0  0  0  0  0  0  0  0  0  0
   -2.3870  -12.8440   19.2512 C   0  0  0  0  0  0  0  0  0  0  0  0
    0.5331   -7.6964   16.2751 C   0  0  0  0  0  0  0  0  0  0  0  0
   -0.6740  -10.8737   18.0482 C   0  0  0  0  0  0  0  0  0  0  0  0
    5.6751  -10.5870   29.7637 O   0  0  0  0  0  0  0  0  0  0  0  0
    1.7612   -5.6483   26.7172 C   0  0  0  0  0  0  0  0  0  0  0  0
    0.2221   -9.8326   17.4055 C   0  0  0  0  0  0  0  0  0  0  0  0
    4.3850   -9.0730   28.6745 C   0  0  0  0  0  0  0  0  0  0  0  0
  1  7  4  0
  1 22  4  0
  2 17  4  0
  2 20  4  0
  2 28  4  0
  3  6  1  0
  3 19  1  0
  4 19  1  0
  4 26  1  0
  5 17  4  0
  5 18  4  0
  6 20  1  0
  6 26  1  0
  7 24  4  0
  8 15  4  0
  8 24  4  0
  9 14  4  0
  9 21  4  0
 10 12  4  0
 10 27  4  0
 11 12  4  0
 11 23  4  0
 13 23  4  0
 13 27  4  0
 14 20  4  0
 15 22  4  0
 16 18  4  0
 16 25  2  0
 16 28  4  0
 21 28  4  0
 24 27  1  0
M  END
$$$$

 Created by Python create_sdf_string function

 28 31  0  0  0  0  0  0  0  0999 V2000
   -1.0054  -13.0622   19.1198 C   0  0  0  0  0  0  0  0  0  0  0  0
    3.1478   -8.5360   28.5161 C   0  0  0  0  0  0  0  0  0  0  0  0
    0.5798   -7.1906   27.9330 C   0  0  0  0  0  0  0  0  0  0  0  0
    0.3978   -5.1561   26.6955 C   0  0  0  0  0  0  0  0  0  0  0  0
    2.3063  -10.0533   30.0125 C   0  0  0  0  0  0  0  0  0  0  0  0
    1.8591   -6.8254   27.4685 N   0  0  0  0  0  0  0  0  0  0  0  0
   -0.2167  -12.1055   18.5568 C   0  0  0  0  0  0  0  0  0  0  0  0
   -2.0661  -10.6994   18.1916 C   0  0  0  0  0  0  0  0  0  0  0  0
    5.2703   -7.5691   27.1123 C   0  0  0  0  0  0  0  0  0  0  0  0
    1.6204   -9.9887   17.2935 C   0  0  0  0  0  0  0  0  0  0  0  0
    1.8931   -7.9265   16.2047 C   0  0  0  0  0  0  0  0  0  0  0  0
    2.4396   -9.0801   16.7132 C   0  0  0  0  0  0  0  0  0  0  0  0
   -0.2575   -8.6234   16.8582 C   0  0  0  0  0  0  0  0  0  0  0  0
    4.0614   -7.0367   27.0106 N   0  0  0  0  0  0  0  0  0  0  0  0
   -2.9133  -11.6279   18.7578 C   0  0  0  0  0  0  0  0  0  0  0  0
    4.5688  -10.1291   29.5758 C   0  0  0  0  0  0  0  0  0  0  0  0
    2.1008   -9.0410   29.1852 N   0  0  0  0  0  0  0  0  0  0  0  0
    3.4829  -10.5697   30.2091 N   0  0  0  0  0  0  0  0  0  0  0  0
   -0.3363   -6.1172   27.5628 C   0  0  0  0  0  0  0  0  0  0  0  0
    3.0331   -7.4400   27.6362 C   0  0  0  0  0  0  0  0  0  0  0  0
    5.4553   -8.5933   27.9644 C   0  0  0  0  0  0  0  0  0  0  0  0
   -2.3870  -12.8440   19.2512 C   0  0  0  0  0  0  0  0  0  0  0  0
    0.5331   -7.6964   16.2751 C   0  0  0  0  0  0  0  0  0  0  0  0
   -0.6740  -10.8737   18.0482 C   0  0  0  0  0  0  0  0  0  0  0  0
    5.6751  -10.5870   29.7637 O   0  0  0  0  0  0  0  0  0  0  0  0
    1.7612   -5.6483   26.7172 C   0  0  0  0  0  0  0  0  0  0  0  0
    0.2221   -9.8326   17.4055 C   0  0  0  0  0  0  0  0  0  0  0  0
    4.3850   -9.0730   28.6745 C   0  0  0  0  0  0  0  0  0  0  0  0
  1  7  4  0
  1 22  4  0
  2 17  4  0
  2 20  4  0
  2 28  4  0
  3  6  1  0
  3 19  1  0
  4 19  1  0
  4 26  1  0
  5 17  4  0
  5 18  4  0
  6 20  1  0
  6 26  1  0
  7 24  4  0
  8 15  4  0
  8 24  4  0
  9 14  4  0
  9 21  4  0
 10 12  4  0
 10 27  4  0
 11 12  4  0
 11 23  4  0
 13 23  4  0
 13 27  4  0
 14 20  4  0
 15 22  4  0
 16 18  4  0
 16 25  2  0
 16 28  4  0
 21 28  4  0
 24 27  1  0
M  END
$$$$

 Created by Python create_sdf_string function

 28 31  0  0  0  0  0  0  0  0999 V2000
   -1.0054  -13.0622   19.1198 C   0  0  0  0  0  0  0  0  0  0  0  0
    3.1478   -8.5360   28.5161 C   0  0  0  0  0  0  0  0  0  0  0  0
    0.5798   -7.1906   27.9330 C   0  0  0  0  0  0  0  0  0  0  0  0
    0.3978   -5.1561   26.6955 C   0  0  0  0  0  0  0  0  0  0  0  0
    2.3063  -10.0533   30.0125 C   0  0  0  0  0  0  0  0  0  0  0  0
    1.8591   -6.8254   27.4685 N   0  0  0  0  0  0  0  0  0  0  0  0
   -0.2167  -12.1055   18.5568 C   0  0  0  0  0  0  0  0  0  0  0  0
   -2.0661  -10.6994   18.1916 C   0  0  0  0  0  0  0  0  0  0  0  0
    5.2703   -7.5691   27.1123 C   0  0  0  0  0  0  0  0  0  0  0  0
    1.6204   -9.9887   17.2935 C   0  0  0  0  0  0  0  0  0  0  0  0
    1.8931   -7.9265   16.2047 C   0  0  0  0  0  0  0  0  0  0  0  0
    2.4396   -9.0801   16.7132 C   0  0  0  0  0  0  0  0  0  0  0  0
   -0.2575   -8.6234   16.8582 C   0  0  0  0  0  0  0  0  0  0  0  0
    4.0614   -7.0367   27.0106 N   0  0  0  0  0  0  0  0  0  0  0  0
   -2.9133  -11.6279   18.7578 C   0  0  0  0  0  0  0  0  0  0  0  0
    4.5688  -10.1291   29.5758 C   0  0  0  0  0  0  0  0  0  0  0  0
    2.1008   -9.0410   29.1852 N   0  0  0  0  0  0  0  0  0  0  0  0
    3.4829  -10.5697   30.2091 N   0  0  0  0  0  0  0  0  0  0  0  0
   -0.3363   -6.1172   27.5628 C   0  0  0  0  0  0  0  0  0  0  0  0
    3.0331   -7.4400   27.6362 C   0  0  0  0  0  0  0  0  0  0  0  0
    5.4553   -8.5933   27.9644 C   0  0  0  0  0  0  0  0  0  0  0  0
   -2.3870  -12.8440   19.2512 C   0  0  0  0  0  0  0  0  0  0  0  0
    0.5331   -7.6964   16.2751 C   0  0  0  0  0  0  0  0  0  0  0  0
   -0.6740  -10.8737   18.0482 C   0  0  0  0  0  0  0  0  0  0  0  0
    5.6751  -10.5870   29.7637 O   0  0  0  0  0  0  0  0  0  0  0  0
    1.7612   -5.6483   26.7172 C   0  0  0  0  0  0  0  0  0  0  0  0
    0.2221   -9.8326   17.4055 C   0  0  0  0  0  0  0  0  0  0  0  0
    4.3850   -9.0730   28.6745 C   0  0  0  0  0  0  0  0  0  0  0  0
  1  7  4  0
  1 22  4  0
  2 17  4  0
  2 20  4  0
  2 28  4  0
  3  6  1  0
  3 19  1  0
  4 19  1  0
  4 26  1  0
  5 17  4  0
  5 18  4  0
  6 20  1  0
  6 26  1  0
  7 24  4  0
  8 15  4  0
  8 24  4  0
  9 14  4  0
  9 21  4  0
 10 12  4  0
 10 27  4  0
 11 12  4  0
 11 23  4  0
 13 23  4  0
 13 27  4  0
 14 20  4  0
 15 22  4  0
 16 18  4  0
 16 25  2  0
 16 28  4  0
 21 28  4  0
 24 27  1  0
M  END
$$$$

 Created by Python create_sdf_string function

 28 31  0  0  0  0  0  0  0  0999 V2000
   -1.0054  -13.0622   19.1198 C   0  0  0  0  0  0  0  0  0  0  0  0
    3.1478   -8.5360   28.5161 C   0  0  0  0  0  0  0  0  0  0  0  0
    0.5798   -7.1906   27.9330 C   0  0  0  0  0  0  0  0  0  0  0  0
    0.3978   -5.1561   26.6955 C   0  0  0  0  0  0  0  0  0  0  0  0
    2.3063  -10.0533   30.0125 C   0  0  0  0  0  0  0  0  0  0  0  0
    1.8591   -6.8254   27.4685 N   0  0  0  0  0  0  0  0  0  0  0  0
   -0.2167  -12.1055   18.5568 C   0  0  0  0  0  0  0  0  0  0  0  0
   -2.0661  -10.6994   18.1916 C   0  0  0  0  0  0  0  0  0  0  0  0
    5.2703   -7.5691   27.1123 C   0  0  0  0  0  0  0  0  0  0  0  0
    1.6204   -9.9887   17.2935 C   0  0  0  0  0  0  0  0  0  0  0  0
    1.8931   -7.9265   16.2047 C   0  0  0  0  0  0  0  0  0  0  0  0
    2.4396   -9.0801   16.7132 C   0  0  0  0  0  0  0  0  0  0  0  0
   -0.2575   -8.6234   16.8582 C   0  0  0  0  0  0  0  0  0  0  0  0
    4.0614   -7.0367   27.0106 N   0  0  0  0  0  0  0  0  0  0  0  0
   -2.9133  -11.6279   18.7578 C   0  0  0  0  0  0  0  0  0  0  0  0
    4.5688  -10.1291   29.5758 C   0  0  0  0  0  0  0  0  0  0  0  0
    2.1008   -9.0410   29.1852 N   0  0  0  0  0  0  0  0  0  0  0  0
    3.4829  -10.5697   30.2091 N   0  0  0  0  0  0  0  0  0  0  0  0
   -0.3363   -6.1172   27.5628 C   0  0  0  0  0  0  0  0  0  0  0  0
    3.0331   -7.4400   27.6362 C   0  0  0  0  0  0  0  0  0  0  0  0
    5.4553   -8.5933   27.9644 C   0  0  0  0  0  0  0  0  0  0  0  0
   -2.3870  -12.8440   19.2512 C   0  0  0  0  0  0  0  0  0  0  0  0
    0.5331   -7.6964   16.2751 C   0  0  0  0  0  0  0  0  0  0  0  0
   -0.6740  -10.8737   18.0482 C   0  0  0  0  0  0  0  0  0  0  0  0
    5.6751  -10.5870   29.7637 O   0  0  0  0  0  0  0  0  0  0  0  0
    1.7612   -5.6483   26.7172 C   0  0  0  0  0  0  0  0  0  0  0  0
    0.2221   -9.8326   17.4055 C   0  0  0  0  0  0  0  0  0  0  0  0
    4.3850   -9.0730   28.6745 C   0  0  0  0  0  0  0  0  0  0  0  0
  1  7  4  0
  1 22  4  0
  2 17  4  0
  2 20  4  0
  2 28  4  0
  3  6  1  0
  3 19  1  0
  4 19  1  0
  4 26  1  0
  5 17  4  0
  5 18  4  0
  6 20  1  0
  6 26  1  0
  7 24  4  0
  8 15  4  0
  8 24  4  0
  9 14  4  0
  9 21  4  0
 10 12  4  0
 10 27  4  0
 11 12  4  0
 11 23  4  0
 13 23  4  0
 13 27  4  0
 14 20  4  0
 15 22  4  0
 16 18  4  0
 16 25  2  0
 16 28  4  0
 21 28  4  0
 24 27  1  0
M  END
$$$$

 Created by Python create_sdf_string function

 28 31  0  0  0  0  0  0  0  0999 V2000
   -1.0054  -13.0622   19.1198 C   0  0  0  0  0  0  0  0  0  0  0  0
    3.1478   -8.5360   28.5161 C   0  0  0  0  0  0  0  0  0  0  0  0
    0.5798   -7.1906   27.9330 C   0  0  0  0  0  0  0  0  0  0  0  0
    0.3978   -5.1561   26.6955 C   0  0  0  0  0  0  0  0  0  0  0  0
    2.3063  -10.0533   30.0125 C   0  0  0  0  0  0  0  0  0  0  0  0
    1.8591   -6.8254   27.4685 N   0  0  0  0  0  0  0  0  0  0  0  0
   -0.2167  -12.1055   18.5568 C   0  0  0  0  0  0  0  0  0  0  0  0
   -2.0661  -10.6994   18.1916 C   0  0  0  0  0  0  0  0  0  0  0  0
    5.2703   -7.5691   27.1123 C   0  0  0  0  0  0  0  0  0  0  0  0
    1.6204   -9.9887   17.2935 C   0  0  0  0  0  0  0  0  0  0  0  0
    1.8931   -7.9265   16.2047 C   0  0  0  0  0  0  0  0  0  0  0  0
    2.4396   -9.0801   16.7132 C   0  0  0  0  0  0  0  0  0  0  0  0
   -0.2575   -8.6234   16.8582 C   0  0  0  0  0  0  0  0  0  0  0  0
    4.0614   -7.0367   27.0106 N   0  0  0  0  0  0  0  0  0  0  0  0
   -2.9133  -11.6279   18.7578 C   0  0  0  0  0  0  0  0  0  0  0  0
    4.5688  -10.1291   29.5758 C   0  0  0  0  0  0  0  0  0  0  0  0
    2.1008   -9.0410   29.1852 N   0  0  0  0  0  0  0  0  0  0  0  0
    3.4829  -10.5697   30.2091 N   0  0  0  0  0  0  0  0  0  0  0  0
   -0.3363   -6.1172   27.5628 C   0  0  0  0  0  0  0  0  0  0  0  0
    3.0331   -7.4400   27.6362 C   0  0  0  0  0  0  0  0  0  0  0  0
    5.4553   -8.5933   27.9644 C   0  0  0  0  0  0  0  0  0  0  0  0
   -2.3870  -12.8440   19.2512 C   0  0  0  0  0  0  0  0  0  0  0  0
    0.5331   -7.6964   16.2751 C   0  0  0  0  0  0  0  0  0  0  0  0
   -0.6740  -10.8737   18.0482 C   0  0  0  0  0  0  0  0  0  0  0  0
    5.6751  -10.5870   29.7637 O   0  0  0  0  0  0  0  0  0  0  0  0
    1.7612   -5.6483   26.7172 C   0  0  0  0  0  0  0  0  0  0  0  0
    0.2221   -9.8326   17.4055 C   0  0  0  0  0  0  0  0  0  0  0  0
    4.3850   -9.0730   28.6745 C   0  0  0  0  0  0  0  0  0  0  0  0
  1  7  4  0
  1 22  4  0
  2 17  4  0
  2 20  4  0
  2 28  4  0
  3  6  1  0
  3 19  1  0
  4 19  1  0
  4 26  1  0
  5 17  4  0
  5 18  4  0
  6 20  1  0
  6 26  1  0
  7 24  4  0
  8 15  4  0
  8 24  4  0
  9 14  4  0
  9 21  4  0
 10 12  4  0
 10 27  4  0
 11 12  4  0
 11 23  4  0
 13 23  4  0
 13 27  4  0
 14 20  4  0
 15 22  4  0
 16 18  4  0
 16 25  2  0
 16 28  4  0
 21 28  4  0
 24 27  1  0
M  END
$$$$

 Created by Python create_sdf_string function

 28 31  0  0  0  0  0  0  0  0999 V2000
   -1.0054  -13.0622   19.1198 C   0  0  0  0  0  0  0  0  0  0  0  0
    3.1478   -8.5360   28.5161 C   0  0  0  0  0  0  0  0  0  0  0  0
    0.5798   -7.1906   27.9330 C   0  0  0  0  0  0  0  0  0  0  0  0
    0.3978   -5.1561   26.6955 C   0  0  0  0  0  0  0  0  0  0  0  0
    2.3063  -10.0533   30.0125 C   0  0  0  0  0  0  0  0  0  0  0  0
    1.8591   -6.8254   27.4685 N   0  0  0  0  0  0  0  0  0  0  0  0
   -0.2167  -12.1055   18.5568 C   0  0  0  0  0  0  0  0  0  0  0  0
   -2.0661  -10.6994   18.1916 C   0  0  0  0  0  0  0  0  0  0  0  0
    5.2703   -7.5691   27.1123 C   0  0  0  0  0  0  0  0  0  0  0  0
    1.6204   -9.9887   17.2935 C   0  0  0  0  0  0  0  0  0  0  0  0
    1.8931   -7.9265   16.2047 C   0  0  0  0  0  0  0  0  0  0  0  0
    2.4396   -9.0801   16.7132 C   0  0  0  0  0  0  0  0  0  0  0  0
   -0.2575   -8.6234   16.8582 C   0  0  0  0  0  0  0  0  0  0  0  0
    4.0614   -7.0367   27.0106 N   0  0  0  0  0  0  0  0  0  0  0  0
   -2.9133  -11.6279   18.7578 C   0  0  0  0  0  0  0  0  0  0  0  0
    4.5688  -10.1291   29.5758 C   0  0  0  0  0  0  0  0  0  0  0  0
    2.1008   -9.0410   29.1852 N   0  0  0  0  0  0  0  0  0  0  0  0
    3.4829  -10.5697   30.2091 N   0  0  0  0  0  0  0  0  0  0  0  0
   -0.3363   -6.1172   27.5628 C   0  0  0  0  0  0  0  0  0  0  0  0
    3.0331   -7.4400   27.6362 C   0  0  0  0  0  0  0  0  0  0  0  0
    5.4553   -8.5933   27.9644 C   0  0  0  0  0  0  0  0  0  0  0  0
   -2.3870  -12.8440   19.2512 C   0  0  0  0  0  0  0  0  0  0  0  0
    0.5331   -7.6964   16.2751 C   0  0  0  0  0  0  0  0  0  0  0  0
   -0.6740  -10.8737   18.0482 C   0  0  0  0  0  0  0  0  0  0  0  0
    5.6751  -10.5870   29.7637 O   0  0  0  0  0  0  0  0  0  0  0  0
    1.7612   -5.6483   26.7172 C   0  0  0  0  0  0  0  0  0  0  0  0
    0.2221   -9.8326   17.4055 C   0  0  0  0  0  0  0  0  0  0  0  0
    4.3850   -9.0730   28.6745 C   0  0  0  0  0  0  0  0  0  0  0  0
  1  7  4  0
  1 22  4  0
  2 17  4  0
  2 20  4  0
  2 28  4  0
  3  6  1  0
  3 19  1  0
  4 19  1  0
  4 26  1  0
  5 17  4  0
  5 18  4  0
  6 20  1  0
  6 26  1  0
  7 24  4  0
  8 15  4  0
  8 24  4  0
  9 14  4  0
  9 21  4  0
 10 12  4  0
 10 27  4  0
 11 12  4  0
 11 23  4  0
 13 23  4  0
 13 27  4  0
 14 20  4  0
 15 22  4  0
 16 18  4  0
 16 25  2  0
 16 28  4  0
 21 28  4  0
 24 27  1  0
M  END
$$$$

 Created by Python create_sdf_string function

 28 31  0  0  0  0  0  0  0  0999 V2000
   -1.0054  -13.0622   19.1198 C   0  0  0  0  0  0  0  0  0  0  0  0
    3.1478   -8.5360   28.5161 C   0  0  0  0  0  0  0  0  0  0  0  0
    0.5798   -7.1906   27.9330 C   0  0  0  0  0  0  0  0  0  0  0  0
    0.3978   -5.1561   26.6955 C   0  0  0  0  0  0  0  0  0  0  0  0
    2.3063  -10.0533   30.0125 C   0  0  0  0  0  0  0  0  0  0  0  0
    1.8591   -6.8254   27.4685 N   0  0  0  0  0  0  0  0  0  0  0  0
   -0.2167  -12.1055   18.5568 C   0  0  0  0  0  0  0  0  0  0  0  0
   -2.0661  -10.6994   18.1916 C   0  0  0  0  0  0  0  0  0  0  0  0
    5.2703   -7.5691   27.1123 C   0  0  0  0  0  0  0  0  0  0  0  0
    1.6204   -9.9887   17.2935 C   0  0  0  0  0  0  0  0  0  0  0  0
    1.8931   -7.9265   16.2047 C   0  0  0  0  0  0  0  0  0  0  0  0
    2.4396   -9.0801   16.7132 C   0  0  0  0  0  0  0  0  0  0  0  0
   -0.2575   -8.6234   16.8582 C   0  0  0  0  0  0  0  0  0  0  0  0
    4.0614   -7.0367   27.0106 N   0  0  0  0  0  0  0  0  0  0  0  0
   -2.9133  -11.6279   18.7578 C   0  0  0  0  0  0  0  0  0  0  0  0
    4.5688  -10.1291   29.5758 C   0  0  0  0  0  0  0  0  0  0  0  0
    2.1008   -9.0410   29.1852 N   0  0  0  0  0  0  0  0  0  0  0  0
    3.4829  -10.5697   30.2091 N   0  0  0  0  0  0  0  0  0  0  0  0
   -0.3363   -6.1172   27.5628 C   0  0  0  0  0  0  0  0  0  0  0  0
    3.0331   -7.4400   27.6362 C   0  0  0  0  0  0  0  0  0  0  0  0
    5.4553   -8.5933   27.9644 C   0  0  0  0  0  0  0  0  0  0  0  0
   -2.3870  -12.8440   19.2512 C   0  0  0  0  0  0  0  0  0  0  0  0
    0.5331   -7.6964   16.2751 C   0  0  0  0  0  0  0  0  0  0  0  0
   -0.6740  -10.8737   18.0482 C   0  0  0  0  0  0  0  0  0  0  0  0
    5.6751  -10.5870   29.7637 O   0  0  0  0  0  0  0  0  0  0  0  0
    1.7612   -5.6483   26.7172 C   0  0  0  0  0  0  0  0  0  0  0  0
    0.2221   -9.8326   17.4055 C   0  0  0  0  0  0  0  0  0  0  0  0
    4.3850   -9.0730   28.6745 C   0  0  0  0  0  0  0  0  0  0  0  0
  1  7  4  0
  1 22  4  0
  2 17  4  0
  2 20  4  0
  2 28  4  0
  3  6  1  0
  3 19  1  0
  4 19  1  0
  4 26  1  0
  5 17  4  0
  5 18  4  0
  6 20  1  0
  6 26  1  0
  7 24  4  0
  8 15  4  0
  8 24  4  0
  9 14  4  0
  9 21  4  0
 10 12  4  0
 10 27  4  0
 11 12  4  0
 11 23  4  0
 13 23  4  0
 13 27  4  0
 14 20  4  0
 15 22  4  0
 16 18  4  0
 16 25  2  0
 16 28  4  0
 21 28  4  0
 24 27  1  0
M  END
$$$$

 Created by Python create_sdf_string function

 28 31  0  0  0  0  0  0  0  0999 V2000
   -1.0054  -13.0622   19.1198 C   0  0  0  0  0  0  0  0  0  0  0  0
    3.1478   -8.5360   28.5161 C   0  0  0  0  0  0  0  0  0  0  0  0
    0.5798   -7.1906   27.9330 C   0  0  0  0  0  0  0  0  0  0  0  0
    0.3978   -5.1561   26.6955 C   0  0  0  0  0  0  0  0  0  0  0  0
    2.3063  -10.0533   30.0125 C   0  0  0  0  0  0  0  0  0  0  0  0
    1.8591   -6.8254   27.4685 N   0  0  0  0  0  0  0  0  0  0  0  0
   -0.2167  -12.1055   18.5568 C   0  0  0  0  0  0  0  0  0  0  0  0
   -2.0661  -10.6994   18.1916 C   0  0  0  0  0  0  0  0  0  0  0  0
    5.2703   -7.5691   27.1123 C   0  0  0  0  0  0  0  0  0  0  0  0
    1.6204   -9.9887   17.2935 C   0  0  0  0  0  0  0  0  0  0  0  0
    1.8931   -7.9265   16.2047 C   0  0  0  0  0  0  0  0  0  0  0  0
    2.4396   -9.0801   16.7132 C   0  0  0  0  0  0  0  0  0  0  0  0
   -0.2575   -8.6234   16.8582 C   0  0  0  0  0  0  0  0  0  0  0  0
    4.0614   -7.0367   27.0106 N   0  0  0  0  0  0  0  0  0  0  0  0
   -2.9133  -11.6279   18.7578 C   0  0  0  0  0  0  0  0  0  0  0  0
    4.5688  -10.1291   29.5758 C   0  0  0  0  0  0  0  0  0  0  0  0
    2.1008   -9.0410   29.1852 N   0  0  0  0  0  0  0  0  0  0  0  0
    3.4829  -10.5697   30.2091 N   0  0  0  0  0  0  0  0  0  0  0  0
   -0.3363   -6.1172   27.5628 C   0  0  0  0  0  0  0  0  0  0  0  0
    3.0331   -7.4400   27.6362 C   0  0  0  0  0  0  0  0  0  0  0  0
    5.4553   -8.5933   27.9644 C   0  0  0  0  0  0  0  0  0  0  0  0
   -2.3870  -12.8440   19.2512 C   0  0  0  0  0  0  0  0  0  0  0  0
    0.5331   -7.6964   16.2751 C   0  0  0  0  0  0  0  0  0  0  0  0
   -0.6740  -10.8737   18.0482 C   0  0  0  0  0  0  0  0  0  0  0  0
    5.6751  -10.5870   29.7637 O   0  0  0  0  0  0  0  0  0  0  0  0
    1.7612   -5.6483   26.7172 C   0  0  0  0  0  0  0  0  0  0  0  0
    0.2221   -9.8326   17.4055 C   0  0  0  0  0  0  0  0  0  0  0  0
    4.3850   -9.0730   28.6745 C   0  0  0  0  0  0  0  0  0  0  0  0
  1  7  4  0
  1 22  4  0
  2 17  4  0
  2 20  4  0
  2 28  4  0
  3  6  1  0
  3 19  1  0
  4 19  1  0
  4 26  1  0
  5 17  4  0
  5 18  4  0
  6 20  1  0
  6 26  1  0
  7 24  4  0
  8 15  4  0
  8 24  4  0
  9 14  4  0
  9 21  4  0
 10 12  4  0
 10 27  4  0
 11 12  4  0
 11 23  4  0
 13 23  4  0
 13 27  4  0
 14 20  4  0
 15 22  4  0
 16 18  4  0
 16 25  2  0
 16 28  4  0
 21 28  4  0
 24 27  1  0
M  END
$$$$

 Created by Python create_sdf_string function

 28 31  0  0  0  0  0  0  0  0999 V2000
   -1.0054  -13.0622   19.1198 C   0  0  0  0  0  0  0  0  0  0  0  0
    3.1478   -8.5360   28.5161 C   0  0  0  0  0  0  0  0  0  0  0  0
    0.5798   -7.1906   27.9330 C   0  0  0  0  0  0  0  0  0  0  0  0
    0.3978   -5.1561   26.6955 C   0  0  0  0  0  0  0  0  0  0  0  0
    2.3063  -10.0533   30.0125 C   0  0  0  0  0  0  0  0  0  0  0  0
    1.8591   -6.8254   27.4685 N   0  0  0  0  0  0  0  0  0  0  0  0
   -0.2167  -12.1055   18.5568 C   0  0  0  0  0  0  0  0  0  0  0  0
   -2.0661  -10.6994   18.1916 C   0  0  0  0  0  0  0  0  0  0  0  0
    5.2703   -7.5691   27.1123 C   0  0  0  0  0  0  0  0  0  0  0  0
    1.6204   -9.9887   17.2935 C   0  0  0  0  0  0  0  0  0  0  0  0
    1.8931   -7.9265   16.2047 C   0  0  0  0  0  0  0  0  0  0  0  0
    2.4396   -9.0801   16.7132 C   0  0  0  0  0  0  0  0  0  0  0  0
   -0.2575   -8.6234   16.8582 C   0  0  0  0  0  0  0  0  0  0  0  0
    4.0614   -7.0367   27.0106 N   0  0  0  0  0  0  0  0  0  0  0  0
   -2.9133  -11.6279   18.7578 C   0  0  0  0  0  0  0  0  0  0  0  0
    4.5688  -10.1291   29.5758 C   0  0  0  0  0  0  0  0  0  0  0  0
    2.1008   -9.0410   29.1852 N   0  0  0  0  0  0  0  0  0  0  0  0
    3.4829  -10.5697   30.2091 N   0  0  0  0  0  0  0  0  0  0  0  0
   -0.3363   -6.1172   27.5628 C   0  0  0  0  0  0  0  0  0  0  0  0
    3.0331   -7.4400   27.6362 C   0  0  0  0  0  0  0  0  0  0  0  0
    5.4553   -8.5933   27.9644 C   0  0  0  0  0  0  0  0  0  0  0  0
   -2.3870  -12.8440   19.2512 C   0  0  0  0  0  0  0  0  0  0  0  0
    0.5331   -7.6964   16.2751 C   0  0  0  0  0  0  0  0  0  0  0  0
   -0.6740  -10.8737   18.0482 C   0  0  0  0  0  0  0  0  0  0  0  0
    5.6751  -10.5870   29.7637 O   0  0  0  0  0  0  0  0  0  0  0  0
    1.7612   -5.6483   26.7172 C   0  0  0  0  0  0  0  0  0  0  0  0
    0.2221   -9.8326   17.4055 C   0  0  0  0  0  0  0  0  0  0  0  0
    4.3850   -9.0730   28.6745 C   0  0  0  0  0  0  0  0  0  0  0  0
  1  7  4  0
  1 22  4  0
  2 17  4  0
  2 20  4  0
  2 28  4  0
  3  6  1  0
  3 19  1  0
  4 19  1  0
  4 26  1  0
  5 17  4  0
  5 18  4  0
  6 20  1  0
  6 26  1  0
  7 24  4  0
  8 15  4  0
  8 24  4  0
  9 14  4  0
  9 21  4  0
 10 12  4  0
 10 27  4  0
 11 12  4  0
 11 23  4  0
 13 23  4  0
 13 27  4  0
 14 20  4  0
 15 22  4  0
 16 18  4  0
 16 25  2  0
 16 28  4  0
 21 28  4  0
 24 27  1  0
M  END
$$$$

 Created by Python create_sdf_string function

 28 31  0  0  0  0  0  0  0  0999 V2000
   -1.0054  -13.0622   19.1198 C   0  0  0  0  0  0  0  0  0  0  0  0
    3.1478   -8.5360   28.5161 C   0  0  0  0  0  0  0  0  0  0  0  0
    0.5798   -7.1906   27.9330 C   0  0  0  0  0  0  0  0  0  0  0  0
    0.3978   -5.1561   26.6955 C   0  0  0  0  0  0  0  0  0  0  0  0
    2.3063  -10.0533   30.0125 C   0  0  0  0  0  0  0  0  0  0  0  0
    1.8591   -6.8254   27.4685 N   0  0  0  0  0  0  0  0  0  0  0  0
   -0.2167  -12.1055   18.5568 C   0  0  0  0  0  0  0  0  0  0  0  0
   -2.0661  -10.6994   18.1916 C   0  0  0  0  0  0  0  0  0  0  0  0
    5.2703   -7.5691   27.1123 C   0  0  0  0  0  0  0  0  0  0  0  0
    1.6204   -9.9887   17.2935 C   0  0  0  0  0  0  0  0  0  0  0  0
    1.8931   -7.9265   16.2047 C   0  0  0  0  0  0  0  0  0  0  0  0
    2.4396   -9.0801   16.7132 C   0  0  0  0  0  0  0  0  0  0  0  0
   -0.2575   -8.6234   16.8582 C   0  0  0  0  0  0  0  0  0  0  0  0
    4.0614   -7.0367   27.0106 N   0  0  0  0  0  0  0  0  0  0  0  0
   -2.9133  -11.6279   18.7578 C   0  0  0  0  0  0  0  0  0  0  0  0
    4.5688  -10.1291   29.5758 C   0  0  0  0  0  0  0  0  0  0  0  0
    2.1008   -9.0410   29.1852 N   0  0  0  0  0  0  0  0  0  0  0  0
    3.4829  -10.5697   30.2091 N   0  0  0  0  0  0  0  0  0  0  0  0
   -0.3363   -6.1172   27.5628 C   0  0  0  0  0  0  0  0  0  0  0  0
    3.0331   -7.4400   27.6362 C   0  0  0  0  0  0  0  0  0  0  0  0
    5.4553   -8.5933   27.9644 C   0  0  0  0  0  0  0  0  0  0  0  0
   -2.3870  -12.8440   19.2512 C   0  0  0  0  0  0  0  0  0  0  0  0
    0.5331   -7.6964   16.2751 C   0  0  0  0  0  0  0  0  0  0  0  0
   -0.6740  -10.8737   18.0482 C   0  0  0  0  0  0  0  0  0  0  0  0
    5.6751  -10.5870   29.7637 O   0  0  0  0  0  0  0  0  0  0  0  0
    1.7612   -5.6483   26.7172 C   0  0  0  0  0  0  0  0  0  0  0  0
    0.2221   -9.8326   17.4055 C   0  0  0  0  0  0  0  0  0  0  0  0
    4.3850   -9.0730   28.6745 C   0  0  0  0  0  0  0  0  0  0  0  0
  1  7  4  0
  1 22  4  0
  2 17  4  0
  2 20  4  0
  2 28  4  0
  3  6  1  0
  3 19  1  0
  4 19  1  0
  4 26  1  0
  5 17  4  0
  5 18  4  0
  6 20  1  0
  6 26  1  0
  7 24  4  0
  8 15  4  0
  8 24  4  0
  9 14  4  0
  9 21  4  0
 10 12  4  0
 10 27  4  0
 11 12  4  0
 11 23  4  0
 13 23  4  0
 13 27  4  0
 14 20  4  0
 15 22  4  0
 16 18  4  0
 16 25  2  0
 16 28  4  0
 21 28  4  0
 24 27  1  0
M  END
$$$$

 Created by Python create_sdf_string function

 28 31  0  0  0  0  0  0  0  0999 V2000
   -1.0054  -13.0622   19.1198 C   0  0  0  0  0  0  0  0  0  0  0  0
    3.1478   -8.5360   28.5161 C   0  0  0  0  0  0  0  0  0  0  0  0
    0.5798   -7.1906   27.9330 C   0  0  0  0  0  0  0  0  0  0  0  0
    0.3978   -5.1561   26.6955 C   0  0  0  0  0  0  0  0  0  0  0  0
    2.3063  -10.0533   30.0125 C   0  0  0  0  0  0  0  0  0  0  0  0
    1.8591   -6.8254   27.4685 N   0  0  0  0  0  0  0  0  0  0  0  0
   -0.2167  -12.1055   18.5568 C   0  0  0  0  0  0  0  0  0  0  0  0
   -2.0661  -10.6994   18.1916 C   0  0  0  0  0  0  0  0  0  0  0  0
    5.2703   -7.5691   27.1123 C   0  0  0  0  0  0  0  0  0  0  0  0
    1.6204   -9.9887   17.2935 C   0  0  0  0  0  0  0  0  0  0  0  0
    1.8931   -7.9265   16.2047 C   0  0  0  0  0  0  0  0  0  0  0  0
    2.4396   -9.0801   16.7132 C   0  0  0  0  0  0  0  0  0  0  0  0
   -0.2575   -8.6234   16.8582 C   0  0  0  0  0  0  0  0  0  0  0  0
    4.0614   -7.0367   27.0106 N   0  0  0  0  0  0  0  0  0  0  0  0
   -2.9133  -11.6279   18.7578 C   0  0  0  0  0  0  0  0  0  0  0  0
    4.5688  -10.1291   29.5758 C   0  0  0  0  0  0  0  0  0  0  0  0
    2.1008   -9.0410   29.1852 N   0  0  0  0  0  0  0  0  0  0  0  0
    3.4829  -10.5697   30.2091 N   0  0  0  0  0  0  0  0  0  0  0  0
   -0.3363   -6.1172   27.5628 C   0  0  0  0  0  0  0  0  0  0  0  0
    3.0331   -7.4400   27.6362 C   0  0  0  0  0  0  0  0  0  0  0  0
    5.4553   -8.5933   27.9644 C   0  0  0  0  0  0  0  0  0  0  0  0
   -2.3870  -12.8440   19.2512 C   0  0  0  0  0  0  0  0  0  0  0  0
    0.5331   -7.6964   16.2751 C   0  0  0  0  0  0  0  0  0  0  0  0
   -0.6740  -10.8737   18.0482 C   0  0  0  0  0  0  0  0  0  0  0  0
    5.6751  -10.5870   29.7637 O   0  0  0  0  0  0  0  0  0  0  0  0
    1.7612   -5.6483   26.7172 C   0  0  0  0  0  0  0  0  0  0  0  0
    0.2221   -9.8326   17.4055 C   0  0  0  0  0  0  0  0  0  0  0  0
    4.3850   -9.0730   28.6745 C   0  0  0  0  0  0  0  0  0  0  0  0
  1  7  4  0
  1 22  4  0
  2 17  4  0
  2 20  4  0
  2 28  4  0
  3  6  1  0
  3 19  1  0
  4 19  1  0
  4 26  1  0
  5 17  4  0
  5 18  4  0
  6 20  1  0
  6 26  1  0
  7 24  4  0
  8 15  4  0
  8 24  4  0
  9 14  4  0
  9 21  4  0
 10 12  4  0
 10 27  4  0
 11 12  4  0
 11 23  4  0
 13 23  4  0
 13 27  4  0
 14 20  4  0
 15 22  4  0
 16 18  4  0
 16 25  2  0
 16 28  4  0
 21 28  4  0
 24 27  1  0
M  END
$$$$

 Created by Python create_sdf_string function

 28 31  0  0  0  0  0  0  0  0999 V2000
   -1.0054  -13.0622   19.1198 C   0  0  0  0  0  0  0  0  0  0  0  0
    3.1478   -8.5360   28.5161 C   0  0  0  0  0  0  0  0  0  0  0  0
    0.5798   -7.1906   27.9330 C   0  0  0  0  0  0  0  0  0  0  0  0
    0.3978   -5.1561   26.6955 C   0  0  0  0  0  0  0  0  0  0  0  0
    2.3063  -10.0533   30.0125 C   0  0  0  0  0  0  0  0  0  0  0  0
    1.8591   -6.8254   27.4685 N   0  0  0  0  0  0  0  0  0  0  0  0
   -0.2167  -12.1055   18.5568 C   0  0  0  0  0  0  0  0  0  0  0  0
   -2.0661  -10.6994   18.1916 C   0  0  0  0  0  0  0  0  0  0  0  0
    5.2703   -7.5691   27.1123 C   0  0  0  0  0  0  0  0  0  0  0  0
    1.6204   -9.9887   17.2935 C   0  0  0  0  0  0  0  0  0  0  0  0
    1.8931   -7.9265   16.2047 C   0  0  0  0  0  0  0  0  0  0  0  0
    2.4396   -9.0801   16.7132 C   0  0  0  0  0  0  0  0  0  0  0  0
   -0.2575   -8.6234   16.8582 C   0  0  0  0  0  0  0  0  0  0  0  0
    4.0614   -7.0367   27.0106 N   0  0  0  0  0  0  0  0  0  0  0  0
   -2.9133  -11.6279   18.7578 C   0  0  0  0  0  0  0  0  0  0  0  0
    4.5688  -10.1291   29.5758 C   0  0  0  0  0  0  0  0  0  0  0  0
    2.1008   -9.0410   29.1852 N   0  0  0  0  0  0  0  0  0  0  0  0
    3.4829  -10.5697   30.2091 N   0  0  0  0  0  0  0  0  0  0  0  0
   -0.3363   -6.1172   27.5628 C   0  0  0  0  0  0  0  0  0  0  0  0
    3.0331   -7.4400   27.6362 C   0  0  0  0  0  0  0  0  0  0  0  0
    5.4553   -8.5933   27.9644 C   0  0  0  0  0  0  0  0  0  0  0  0
   -2.3870  -12.8440   19.2512 C   0  0  0  0  0  0  0  0  0  0  0  0
    0.5331   -7.6964   16.2751 C   0  0  0  0  0  0  0  0  0  0  0  0
   -0.6740  -10.8737   18.0482 C   0  0  0  0  0  0  0  0  0  0  0  0
    5.6751  -10.5870   29.7637 O   0  0  0  0  0  0  0  0  0  0  0  0
    1.7612   -5.6483   26.7172 C   0  0  0  0  0  0  0  0  0  0  0  0
    0.2221   -9.8326   17.4055 C   0  0  0  0  0  0  0  0  0  0  0  0
    4.3850   -9.0730   28.6745 C   0  0  0  0  0  0  0  0  0  0  0  0
  1  7  4  0
  1 22  4  0
  2 17  4  0
  2 20  4  0
  2 28  4  0
  3  6  1  0
  3 19  1  0
  4 19  1  0
  4 26  1  0
  5 17  4  0
  5 18  4  0
  6 20  1  0
  6 26  1  0
  7 24  4  0
  8 15  4  0
  8 24  4  0
  9 14  4  0
  9 21  4  0
 10 12  4  0
 10 27  4  0
 11 12  4  0
 11 23  4  0
 13 23  4  0
 13 27  4  0
 14 20  4  0
 15 22  4  0
 16 18  4  0
 16 25  2  0
 16 28  4  0
 21 28  4  0
 24 27  1  0
M  END
$$$$

 Created by Python create_sdf_string function

 28 31  0  0  0  0  0  0  0  0999 V2000
   -1.0054  -13.0622   19.1198 C   0  0  0  0  0  0  0  0  0  0  0  0
    3.1478   -8.5360   28.5161 C   0  0  0  0  0  0  0  0  0  0  0  0
    0.5798   -7.1906   27.9330 C   0  0  0  0  0  0  0  0  0  0  0  0
    0.3978   -5.1561   26.6955 C   0  0  0  0  0  0  0  0  0  0  0  0
    2.3063  -10.0533   30.0125 C   0  0  0  0  0  0  0  0  0  0  0  0
    1.8591   -6.8254   27.4685 N   0  0  0  0  0  0  0  0  0  0  0  0
   -0.2167  -12.1055   18.5568 C   0  0  0  0  0  0  0  0  0  0  0  0
   -2.0661  -10.6994   18.1916 C   0  0  0  0  0  0  0  0  0  0  0  0
    5.2703   -7.5691   27.1123 C   0  0  0  0  0  0  0  0  0  0  0  0
    1.6204   -9.9887   17.2935 C   0  0  0  0  0  0  0  0  0  0  0  0
    1.8931   -7.9265   16.2047 C   0  0  0  0  0  0  0  0  0  0  0  0
    2.4396   -9.0801   16.7132 C   0  0  0  0  0  0  0  0  0  0  0  0
   -0.2575   -8.6234   16.8582 C   0  0  0  0  0  0  0  0  0  0  0  0
    4.0614   -7.0367   27.0106 N   0  0  0  0  0  0  0  0  0  0  0  0
   -2.9133  -11.6279   18.7578 C   0  0  0  0  0  0  0  0  0  0  0  0
    4.5688  -10.1291   29.5758 C   0  0  0  0  0  0  0  0  0  0  0  0
    2.1008   -9.0410   29.1852 N   0  0  0  0  0  0  0  0  0  0  0  0
    3.4829  -10.5697   30.2091 N   0  0  0  0  0  0  0  0  0  0  0  0
   -0.3363   -6.1172   27.5628 C   0  0  0  0  0  0  0  0  0  0  0  0
    3.0331   -7.4400   27.6362 C   0  0  0  0  0  0  0  0  0  0  0  0
    5.4553   -8.5933   27.9644 C   0  0  0  0  0  0  0  0  0  0  0  0
   -2.3870  -12.8440   19.2512 C   0  0  0  0  0  0  0  0  0  0  0  0
    0.5331   -7.6964   16.2751 C   0  0  0  0  0  0  0  0  0  0  0  0
   -0.6740  -10.8737   18.0482 C   0  0  0  0  0  0  0  0  0  0  0  0
    5.6751  -10.5870   29.7637 O   0  0  0  0  0  0  0  0  0  0  0  0
    1.7612   -5.6483   26.7172 C   0  0  0  0  0  0  0  0  0  0  0  0
    0.2221   -9.8326   17.4055 C   0  0  0  0  0  0  0  0  0  0  0  0
    4.3850   -9.0730   28.6745 C   0  0  0  0  0  0  0  0  0  0  0  0
  1  7  4  0
  1 22  4  0
  2 17  4  0
  2 20  4  0
  2 28  4  0
  3  6  1  0
  3 19  1  0
  4 19  1  0
  4 26  1  0
  5 17  4  0
  5 18  4  0
  6 20  1  0
  6 26  1  0
  7 24  4  0
  8 15  4  0
  8 24  4  0
  9 14  4  0
  9 21  4  0
 10 12  4  0
 10 27  4  0
 11 12  4  0
 11 23  4  0
 13 23  4  0
 13 27  4  0
 14 20  4  0
 15 22  4  0
 16 18  4  0
 16 25  2  0
 16 28  4  0
 21 28  4  0
 24 27  1  0
M  END
$$$$

 Created by Python create_sdf_string function

 28 31  0  0  0  0  0  0  0  0999 V2000
   -1.0054  -13.0622   19.1198 C   0  0  0  0  0  0  0  0  0  0  0  0
    3.1478   -8.5360   28.5161 C   0  0  0  0  0  0  0  0  0  0  0  0
    0.5798   -7.1906   27.9330 C   0  0  0  0  0  0  0  0  0  0  0  0
    0.3978   -5.1561   26.6955 C   0  0  0  0  0  0  0  0  0  0  0  0
    2.3063  -10.0533   30.0125 C   0  0  0  0  0  0  0  0  0  0  0  0
    1.8591   -6.8254   27.4685 N   0  0  0  0  0  0  0  0  0  0  0  0
   -0.2167  -12.1055   18.5568 C   0  0  0  0  0  0  0  0  0  0  0  0
   -2.0661  -10.6994   18.1916 C   0  0  0  0  0  0  0  0  0  0  0  0
    5.2703   -7.5691   27.1123 C   0  0  0  0  0  0  0  0  0  0  0  0
    1.6204   -9.9887   17.2935 C   0  0  0  0  0  0  0  0  0  0  0  0
    1.8931   -7.9265   16.2047 C   0  0  0  0  0  0  0  0  0  0  0  0
    2.4396   -9.0801   16.7132 C   0  0  0  0  0  0  0  0  0  0  0  0
   -0.2575   -8.6234   16.8582 C   0  0  0  0  0  0  0  0  0  0  0  0
    4.0614   -7.0367   27.0106 N   0  0  0  0  0  0  0  0  0  0  0  0
   -2.9133  -11.6279   18.7578 C   0  0  0  0  0  0  0  0  0  0  0  0
    4.5688  -10.1291   29.5758 C   0  0  0  0  0  0  0  0  0  0  0  0
    2.1008   -9.0410   29.1852 N   0  0  0  0  0  0  0  0  0  0  0  0
    3.4829  -10.5697   30.2091 N   0  0  0  0  0  0  0  0  0  0  0  0
   -0.3363   -6.1172   27.5628 C   0  0  0  0  0  0  0  0  0  0  0  0
    3.0331   -7.4400   27.6362 C   0  0  0  0  0  0  0  0  0  0  0  0
    5.4553   -8.5933   27.9644 C   0  0  0  0  0  0  0  0  0  0  0  0
   -2.3870  -12.8440   19.2512 C   0  0  0  0  0  0  0  0  0  0  0  0
    0.5331   -7.6964   16.2751 C   0  0  0  0  0  0  0  0  0  0  0  0
   -0.6740  -10.8737   18.0482 C   0  0  0  0  0  0  0  0  0  0  0  0
    5.6751  -10.5870   29.7637 O   0  0  0  0  0  0  0  0  0  0  0  0
    1.7612   -5.6483   26.7172 C   0  0  0  0  0  0  0  0  0  0  0  0
    0.2221   -9.8326   17.4055 C   0  0  0  0  0  0  0  0  0  0  0  0
    4.3850   -9.0730   28.6745 C   0  0  0  0  0  0  0  0  0  0  0  0
  1  7  4  0
  1 22  4  0
  2 17  4  0
  2 20  4  0
  2 28  4  0
  3  6  1  0
  3 19  1  0
  4 19  1  0
  4 26  1  0
  5 17  4  0
  5 18  4  0
  6 20  1  0
  6 26  1  0
  7 24  4  0
  8 15  4  0
  8 24  4  0
  9 14  4  0
  9 21  4  0
 10 12  4  0
 10 27  4  0
 11 12  4  0
 11 23  4  0
 13 23  4  0
 13 27  4  0
 14 20  4  0
 15 22  4  0
 16 18  4  0
 16 25  2  0
 16 28  4  0
 21 28  4  0
 24 27  1  0
M  END
$$$$

 Created by Python create_sdf_string function

 28 31  0  0  0  0  0  0  0  0999 V2000
   -1.0054  -13.0622   19.1198 C   0  0  0  0  0  0  0  0  0  0  0  0
    3.1478   -8.5360   28.5161 C   0  0  0  0  0  0  0  0  0  0  0  0
    0.5798   -7.1906   27.9330 C   0  0  0  0  0  0  0  0  0  0  0  0
    0.3978   -5.1561   26.6955 C   0  0  0  0  0  0  0  0  0  0  0  0
    2.3063  -10.0533   30.0125 C   0  0  0  0  0  0  0  0  0  0  0  0
    1.8591   -6.8254   27.4685 N   0  0  0  0  0  0  0  0  0  0  0  0
   -0.2167  -12.1055   18.5568 C   0  0  0  0  0  0  0  0  0  0  0  0
   -2.0661  -10.6994   18.1916 C   0  0  0  0  0  0  0  0  0  0  0  0
    5.2703   -7.5691   27.1123 C   0  0  0  0  0  0  0  0  0  0  0  0
    1.6204   -9.9887   17.2935 C   0  0  0  0  0  0  0  0  0  0  0  0
    1.8931   -7.9265   16.2047 C   0  0  0  0  0  0  0  0  0  0  0  0
    2.4396   -9.0801   16.7132 C   0  0  0  0  0  0  0  0  0  0  0  0
   -0.2575   -8.6234   16.8582 C   0  0  0  0  0  0  0  0  0  0  0  0
    4.0614   -7.0367   27.0106 N   0  0  0  0  0  0  0  0  0  0  0  0
   -2.9133  -11.6279   18.7578 C   0  0  0  0  0  0  0  0  0  0  0  0
    4.5688  -10.1291   29.5758 C   0  0  0  0  0  0  0  0  0  0  0  0
    2.1008   -9.0410   29.1852 N   0  0  0  0  0  0  0  0  0  0  0  0
    3.4829  -10.5697   30.2091 N   0  0  0  0  0  0  0  0  0  0  0  0
   -0.3363   -6.1172   27.5628 C   0  0  0  0  0  0  0  0  0  0  0  0
    3.0331   -7.4400   27.6362 C   0  0  0  0  0  0  0  0  0  0  0  0
    5.4553   -8.5933   27.9644 C   0  0  0  0  0  0  0  0  0  0  0  0
   -2.3870  -12.8440   19.2512 C   0  0  0  0  0  0  0  0  0  0  0  0
    0.5331   -7.6964   16.2751 C   0  0  0  0  0  0  0  0  0  0  0  0
   -0.6740  -10.8737   18.0482 C   0  0  0  0  0  0  0  0  0  0  0  0
    5.6751  -10.5870   29.7637 O   0  0  0  0  0  0  0  0  0  0  0  0
    1.7612   -5.6483   26.7172 C   0  0  0  0  0  0  0  0  0  0  0  0
    0.2221   -9.8326   17.4055 C   0  0  0  0  0  0  0  0  0  0  0  0
    4.3850   -9.0730   28.6745 C   0  0  0  0  0  0  0  0  0  0  0  0
  1  7  4  0
  1 22  4  0
  2 17  4  0
  2 20  4  0
  2 28  4  0
  3  6  1  0
  3 19  1  0
  4 19  1  0
  4 26  1  0
  5 17  4  0
  5 18  4  0
  6 20  1  0
  6 26  1  0
  7 24  4  0
  8 15  4  0
  8 24  4  0
  9 14  4  0
  9 21  4  0
 10 12  4  0
 10 27  4  0
 11 12  4  0
 11 23  4  0
 13 23  4  0
 13 27  4  0
 14 20  4  0
 15 22  4  0
 16 18  4  0
 16 25  2  0
 16 28  4  0
 21 28  4  0
 24 27  1  0
M  END
$$$$

 Created by Python create_sdf_string function

 28 31  0  0  0  0  0  0  0  0999 V2000
   -1.0054  -13.0622   19.1198 C   0  0  0  0  0  0  0  0  0  0  0  0
    3.1478   -8.5360   28.5161 C   0  0  0  0  0  0  0  0  0  0  0  0
    0.5798   -7.1906   27.9330 C   0  0  0  0  0  0  0  0  0  0  0  0
    0.3978   -5.1561   26.6955 C   0  0  0  0  0  0  0  0  0  0  0  0
    2.3063  -10.0533   30.0125 C   0  0  0  0  0  0  0  0  0  0  0  0
    1.8591   -6.8254   27.4685 N   0  0  0  0  0  0  0  0  0  0  0  0
   -0.2167  -12.1055   18.5568 C   0  0  0  0  0  0  0  0  0  0  0  0
   -2.0661  -10.6994   18.1916 C   0  0  0  0  0  0  0  0  0  0  0  0
    5.2703   -7.5691   27.1123 C   0  0  0  0  0  0  0  0  0  0  0  0
    1.6204   -9.9887   17.2935 C   0  0  0  0  0  0  0  0  0  0  0  0
    1.8931   -7.9265   16.2047 C   0  0  0  0  0  0  0  0  0  0  0  0
    2.4396   -9.0801   16.7132 C   0  0  0  0  0  0  0  0  0  0  0  0
   -0.2575   -8.6234   16.8582 C   0  0  0  0  0  0  0  0  0  0  0  0
    4.0614   -7.0367   27.0106 N   0  0  0  0  0  0  0  0  0  0  0  0
   -2.9133  -11.6279   18.7578 C   0  0  0  0  0  0  0  0  0  0  0  0
    4.5688  -10.1291   29.5758 C   0  0  0  0  0  0  0  0  0  0  0  0
    2.1008   -9.0410   29.1852 N   0  0  0  0  0  0  0  0  0  0  0  0
    3.4829  -10.5697   30.2091 N   0  0  0  0  0  0  0  0  0  0  0  0
   -0.3363   -6.1172   27.5628 C   0  0  0  0  0  0  0  0  0  0  0  0
    3.0331   -7.4400   27.6362 C   0  0  0  0  0  0  0  0  0  0  0  0
    5.4553   -8.5933   27.9644 C   0  0  0  0  0  0  0  0  0  0  0  0
   -2.3870  -12.8440   19.2512 C   0  0  0  0  0  0  0  0  0  0  0  0
    0.5331   -7.6964   16.2751 C   0  0  0  0  0  0  0  0  0  0  0  0
   -0.6740  -10.8737   18.0482 C   0  0  0  0  0  0  0  0  0  0  0  0
    5.6751  -10.5870   29.7637 O   0  0  0  0  0  0  0  0  0  0  0  0
    1.7612   -5.6483   26.7172 C   0  0  0  0  0  0  0  0  0  0  0  0
    0.2221   -9.8326   17.4055 C   0  0  0  0  0  0  0  0  0  0  0  0
    4.3850   -9.0730   28.6745 C   0  0  0  0  0  0  0  0  0  0  0  0
  1  7  4  0
  1 22  4  0
  2 17  4  0
  2 20  4  0
  2 28  4  0
  3  6  1  0
  3 19  1  0
  4 19  1  0
  4 26  1  0
  5 17  4  0
  5 18  4  0
  6 20  1  0
  6 26  1  0
  7 24  4  0
  8 15  4  0
  8 24  4  0
  9 14  4  0
  9 21  4  0
 10 12  4  0
 10 27  4  0
 11 12  4  0
 11 23  4  0
 13 23  4  0
 13 27  4  0
 14 20  4  0
 15 22  4  0
 16 18  4  0
 16 25  2  0
 16 28  4  0
 21 28  4  0
 24 27  1  0
M  END
$$$$

 Created by Python create_sdf_string function

 28 31  0  0  0  0  0  0  0  0999 V2000
   -1.0054  -13.0622   19.1198 C   0  0  0  0  0  0  0  0  0  0  0  0
    3.1478   -8.5360   28.5161 C   0  0  0  0  0  0  0  0  0  0  0  0
    0.5798   -7.1906   27.9330 C   0  0  0  0  0  0  0  0  0  0  0  0
    0.3978   -5.1561   26.6955 C   0  0  0  0  0  0  0  0  0  0  0  0
    2.3063  -10.0533   30.0125 C   0  0  0  0  0  0  0  0  0  0  0  0
    1.8591   -6.8254   27.4685 N   0  0  0  0  0  0  0  0  0  0  0  0
   -0.2167  -12.1055   18.5568 C   0  0  0  0  0  0  0  0  0  0  0  0
   -2.0661  -10.6994   18.1916 C   0  0  0  0  0  0  0  0  0  0  0  0
    5.2703   -7.5691   27.1123 C   0  0  0  0  0  0  0  0  0  0  0  0
    1.6204   -9.9887   17.2935 C   0  0  0  0  0  0  0  0  0  0  0  0
    1.8931   -7.9265   16.2047 C   0  0  0  0  0  0  0  0  0  0  0  0
    2.4396   -9.0801   16.7132 C   0  0  0  0  0  0  0  0  0  0  0  0
   -0.2575   -8.6234   16.8582 C   0  0  0  0  0  0  0  0  0  0  0  0
    4.0614   -7.0367   27.0106 N   0  0  0  0  0  0  0  0  0  0  0  0
   -2.9133  -11.6279   18.7578 C   0  0  0  0  0  0  0  0  0  0  0  0
    4.5688  -10.1291   29.5758 C   0  0  0  0  0  0  0  0  0  0  0  0
    2.1008   -9.0410   29.1852 N   0  0  0  0  0  0  0  0  0  0  0  0
    3.4829  -10.5697   30.2091 N   0  0  0  0  0  0  0  0  0  0  0  0
   -0.3363   -6.1172   27.5628 C   0  0  0  0  0  0  0  0  0  0  0  0
    3.0331   -7.4400   27.6362 C   0  0  0  0  0  0  0  0  0  0  0  0
    5.4553   -8.5933   27.9644 C   0  0  0  0  0  0  0  0  0  0  0  0
   -2.3870  -12.8440   19.2512 C   0  0  0  0  0  0  0  0  0  0  0  0
    0.5331   -7.6964   16.2751 C   0  0  0  0  0  0  0  0  0  0  0  0
   -0.6740  -10.8737   18.0482 C   0  0  0  0  0  0  0  0  0  0  0  0
    5.6751  -10.5870   29.7637 O   0  0  0  0  0  0  0  0  0  0  0  0
    1.7612   -5.6483   26.7172 C   0  0  0  0  0  0  0  0  0  0  0  0
    0.2221   -9.8326   17.4055 C   0  0  0  0  0  0  0  0  0  0  0  0
    4.3850   -9.0730   28.6745 C   0  0  0  0  0  0  0  0  0  0  0  0
  1  7  4  0
  1 22  4  0
  2 17  4  0
  2 20  4  0
  2 28  4  0
  3  6  1  0
  3 19  1  0
  4 19  1  0
  4 26  1  0
  5 17  4  0
  5 18  4  0
  6 20  1  0
  6 26  1  0
  7 24  4  0
  8 15  4  0
  8 24  4  0
  9 14  4  0
  9 21  4  0
 10 12  4  0
 10 27  4  0
 11 12  4  0
 11 23  4  0
 13 23  4  0
 13 27  4  0
 14 20  4  0
 15 22  4  0
 16 18  4  0
 16 25  2  0
 16 28  4  0
 21 28  4  0
 24 27  1  0
M  END
$$$$

 Created by Python create_sdf_string function

 28 31  0  0  0  0  0  0  0  0999 V2000
   -1.0054  -13.0622   19.1198 C   0  0  0  0  0  0  0  0  0  0  0  0
    3.1478   -8.5360   28.5161 C   0  0  0  0  0  0  0  0  0  0  0  0
    0.5798   -7.1906   27.9330 C   0  0  0  0  0  0  0  0  0  0  0  0
    0.3978   -5.1561   26.6955 C   0  0  0  0  0  0  0  0  0  0  0  0
    2.3063  -10.0533   30.0125 C   0  0  0  0  0  0  0  0  0  0  0  0
    1.8591   -6.8254   27.4685 N   0  0  0  0  0  0  0  0  0  0  0  0
   -0.2167  -12.1055   18.5568 C   0  0  0  0  0  0  0  0  0  0  0  0
   -2.0661  -10.6994   18.1916 C   0  0  0  0  0  0  0  0  0  0  0  0
    5.2703   -7.5691   27.1123 C   0  0  0  0  0  0  0  0  0  0  0  0
    1.6204   -9.9887   17.2935 C   0  0  0  0  0  0  0  0  0  0  0  0
    1.8931   -7.9265   16.2047 C   0  0  0  0  0  0  0  0  0  0  0  0
    2.4396   -9.0801   16.7132 C   0  0  0  0  0  0  0  0  0  0  0  0
   -0.2575   -8.6234   16.8582 C   0  0  0  0  0  0  0  0  0  0  0  0
    4.0614   -7.0367   27.0106 N   0  0  0  0  0  0  0  0  0  0  0  0
   -2.9133  -11.6279   18.7578 C   0  0  0  0  0  0  0  0  0  0  0  0
    4.5688  -10.1291   29.5758 C   0  0  0  0  0  0  0  0  0  0  0  0
    2.1008   -9.0410   29.1852 N   0  0  0  0  0  0  0  0  0  0  0  0
    3.4829  -10.5697   30.2091 N   0  0  0  0  0  0  0  0  0  0  0  0
   -0.3363   -6.1172   27.5628 C   0  0  0  0  0  0  0  0  0  0  0  0
    3.0331   -7.4400   27.6362 C   0  0  0  0  0  0  0  0  0  0  0  0
    5.4553   -8.5933   27.9644 C   0  0  0  0  0  0  0  0  0  0  0  0
   -2.3870  -12.8440   19.2512 C   0  0  0  0  0  0  0  0  0  0  0  0
    0.5331   -7.6964   16.2751 C   0  0  0  0  0  0  0  0  0  0  0  0
   -0.6740  -10.8737   18.0482 C   0  0  0  0  0  0  0  0  0  0  0  0
    5.6751  -10.5870   29.7637 O   0  0  0  0  0  0  0  0  0  0  0  0
    1.7612   -5.6483   26.7172 C   0  0  0  0  0  0  0  0  0  0  0  0
    0.2221   -9.8326   17.4055 C   0  0  0  0  0  0  0  0  0  0  0  0
    4.3850   -9.0730   28.6745 C   0  0  0  0  0  0  0  0  0  0  0  0
  1  7  4  0
  1 22  4  0
  2 17  4  0
  2 20  4  0
  2 28  4  0
  3  6  1  0
  3 19  1  0
  4 19  1  0
  4 26  1  0
  5 17  4  0
  5 18  4  0
  6 20  1  0
  6 26  1  0
  7 24  4  0
  8 15  4  0
  8 24  4  0
  9 14  4  0
  9 21  4  0
 10 12  4  0
 10 27  4  0
 11 12  4  0
 11 23  4  0
 13 23  4  0
 13 27  4  0
 14 20  4  0
 15 22  4  0
 16 18  4  0
 16 25  2  0
 16 28  4  0
 21 28  4  0
 24 27  1  0
M  END
$$$$

 Created by Python create_sdf_string function

 28 31  0  0  0  0  0  0  0  0999 V2000
   -1.0054  -13.0622   19.1198 C   0  0  0  0  0  0  0  0  0  0  0  0
    3.1478   -8.5360   28.5161 C   0  0  0  0  0  0  0  0  0  0  0  0
    0.5798   -7.1906   27.9330 C   0  0  0  0  0  0  0  0  0  0  0  0
    0.3978   -5.1561   26.6955 C   0  0  0  0  0  0  0  0  0  0  0  0
    2.3063  -10.0533   30.0125 C   0  0  0  0  0  0  0  0  0  0  0  0
    1.8591   -6.8254   27.4685 N   0  0  0  0  0  0  0  0  0  0  0  0
   -0.2167  -12.1055   18.5568 C   0  0  0  0  0  0  0  0  0  0  0  0
   -2.0661  -10.6994   18.1916 C   0  0  0  0  0  0  0  0  0  0  0  0
    5.2703   -7.5691   27.1123 C   0  0  0  0  0  0  0  0  0  0  0  0
    1.6204   -9.9887   17.2935 C   0  0  0  0  0  0  0  0  0  0  0  0
    1.8931   -7.9265   16.2047 C   0  0  0  0  0  0  0  0  0  0  0  0
    2.4396   -9.0801   16.7132 C   0  0  0  0  0  0  0  0  0  0  0  0
   -0.2575   -8.6234   16.8582 C   0  0  0  0  0  0  0  0  0  0  0  0
    4.0614   -7.0367   27.0106 N   0  0  0  0  0  0  0  0  0  0  0  0
   -2.9133  -11.6279   18.7578 C   0  0  0  0  0  0  0  0  0  0  0  0
    4.5688  -10.1291   29.5758 C   0  0  0  0  0  0  0  0  0  0  0  0
    2.1008   -9.0410   29.1852 N   0  0  0  0  0  0  0  0  0  0  0  0
    3.4829  -10.5697   30.2091 N   0  0  0  0  0  0  0  0  0  0  0  0
   -0.3363   -6.1172   27.5628 C   0  0  0  0  0  0  0  0  0  0  0  0
    3.0331   -7.4400   27.6362 C   0  0  0  0  0  0  0  0  0  0  0  0
    5.4553   -8.5933   27.9644 C   0  0  0  0  0  0  0  0  0  0  0  0
   -2.3870  -12.8440   19.2512 C   0  0  0  0  0  0  0  0  0  0  0  0
    0.5331   -7.6964   16.2751 C   0  0  0  0  0  0  0  0  0  0  0  0
   -0.6740  -10.8737   18.0482 C   0  0  0  0  0  0  0  0  0  0  0  0
    5.6751  -10.5870   29.7637 O   0  0  0  0  0  0  0  0  0  0  0  0
    1.7612   -5.6483   26.7172 C   0  0  0  0  0  0  0  0  0  0  0  0
    0.2221   -9.8326   17.4055 C   0  0  0  0  0  0  0  0  0  0  0  0
    4.3850   -9.0730   28.6745 C   0  0  0  0  0  0  0  0  0  0  0  0
  1  7  4  0
  1 22  4  0
  2 17  4  0
  2 20  4  0
  2 28  4  0
  3  6  1  0
  3 19  1  0
  4 19  1  0
  4 26  1  0
  5 17  4  0
  5 18  4  0
  6 20  1  0
  6 26  1  0
  7 24  4  0
  8 15  4  0
  8 24  4  0
  9 14  4  0
  9 21  4  0
 10 12  4  0
 10 27  4  0
 11 12  4  0
 11 23  4  0
 13 23  4  0
 13 27  4  0
 14 20  4  0
 15 22  4  0
 16 18  4  0
 16 25  2  0
 16 28  4  0
 21 28  4  0
 24 27  1  0
M  END
$$$$

 Created by Python create_sdf_string function

 28 31  0  0  0  0  0  0  0  0999 V2000
   -1.0054  -13.0622   19.1198 C   0  0  0  0  0  0  0  0  0  0  0  0
    3.1478   -8.5360   28.5161 C   0  0  0  0  0  0  0  0  0  0  0  0
    0.5798   -7.1906   27.9330 C   0  0  0  0  0  0  0  0  0  0  0  0
    0.3978   -5.1561   26.6955 C   0  0  0  0  0  0  0  0  0  0  0  0
    2.3063  -10.0533   30.0125 C   0  0  0  0  0  0  0  0  0  0  0  0
    1.8591   -6.8254   27.4685 N   0  0  0  0  0  0  0  0  0  0  0  0
   -0.2167  -12.1055   18.5568 C   0  0  0  0  0  0  0  0  0  0  0  0
   -2.0661  -10.6994   18.1916 C   0  0  0  0  0  0  0  0  0  0  0  0
    5.2703   -7.5691   27.1123 C   0  0  0  0  0  0  0  0  0  0  0  0
    1.6204   -9.9887   17.2935 C   0  0  0  0  0  0  0  0  0  0  0  0
    1.8931   -7.9265   16.2047 C   0  0  0  0  0  0  0  0  0  0  0  0
    2.4396   -9.0801   16.7132 C   0  0  0  0  0  0  0  0  0  0  0  0
   -0.2575   -8.6234   16.8582 C   0  0  0  0  0  0  0  0  0  0  0  0
    4.0614   -7.0367   27.0106 N   0  0  0  0  0  0  0  0  0  0  0  0
   -2.9133  -11.6279   18.7578 C   0  0  0  0  0  0  0  0  0  0  0  0
    4.5688  -10.1291   29.5758 C   0  0  0  0  0  0  0  0  0  0  0  0
    2.1008   -9.0410   29.1852 N   0  0  0  0  0  0  0  0  0  0  0  0
    3.4829  -10.5697   30.2091 N   0  0  0  0  0  0  0  0  0  0  0  0
   -0.3363   -6.1172   27.5628 C   0  0  0  0  0  0  0  0  0  0  0  0
    3.0331   -7.4400   27.6362 C   0  0  0  0  0  0  0  0  0  0  0  0
    5.4553   -8.5933   27.9644 C   0  0  0  0  0  0  0  0  0  0  0  0
   -2.3870  -12.8440   19.2512 C   0  0  0  0  0  0  0  0  0  0  0  0
    0.5331   -7.6964   16.2751 C   0  0  0  0  0  0  0  0  0  0  0  0
   -0.6740  -10.8737   18.0482 C   0  0  0  0  0  0  0  0  0  0  0  0
    5.6751  -10.5870   29.7637 O   0  0  0  0  0  0  0  0  0  0  0  0
    1.7612   -5.6483   26.7172 C   0  0  0  0  0  0  0  0  0  0  0  0
    0.2221   -9.8326   17.4055 C   0  0  0  0  0  0  0  0  0  0  0  0
    4.3850   -9.0730   28.6745 C   0  0  0  0  0  0  0  0  0  0  0  0
  1  7  4  0
  1 22  4  0
  2 17  4  0
  2 20  4  0
  2 28  4  0
  3  6  1  0
  3 19  1  0
  4 19  1  0
  4 26  1  0
  5 17  4  0
  5 18  4  0
  6 20  1  0
  6 26  1  0
  7 24  4  0
  8 15  4  0
  8 24  4  0
  9 14  4  0
  9 21  4  0
 10 12  4  0
 10 27  4  0
 11 12  4  0
 11 23  4  0
 13 23  4  0
 13 27  4  0
 14 20  4  0
 15 22  4  0
 16 18  4  0
 16 25  2  0
 16 28  4  0
 21 28  4  0
 24 27  1  0
M  END
$$$$

 Created by Python create_sdf_string function

 28 31  0  0  0  0  0  0  0  0999 V2000
   -1.0054  -13.0622   19.1198 C   0  0  0  0  0  0  0  0  0  0  0  0
    3.1478   -8.5360   28.5161 C   0  0  0  0  0  0  0  0  0  0  0  0
    0.5798   -7.1906   27.9330 C   0  0  0  0  0  0  0  0  0  0  0  0
    0.3978   -5.1561   26.6955 C   0  0  0  0  0  0  0  0  0  0  0  0
    2.3063  -10.0533   30.0125 C   0  0  0  0  0  0  0  0  0  0  0  0
    1.8591   -6.8254   27.4685 N   0  0  0  0  0  0  0  0  0  0  0  0
   -0.2167  -12.1055   18.5568 C   0  0  0  0  0  0  0  0  0  0  0  0
   -2.0661  -10.6994   18.1916 C   0  0  0  0  0  0  0  0  0  0  0  0
    5.2703   -7.5691   27.1123 C   0  0  0  0  0  0  0  0  0  0  0  0
    1.6204   -9.9887   17.2935 C   0  0  0  0  0  0  0  0  0  0  0  0
    1.8931   -7.9265   16.2047 C   0  0  0  0  0  0  0  0  0  0  0  0
    2.4396   -9.0801   16.7132 C   0  0  0  0  0  0  0  0  0  0  0  0
   -0.2575   -8.6234   16.8582 C   0  0  0  0  0  0  0  0  0  0  0  0
    4.0614   -7.0367   27.0106 N   0  0  0  0  0  0  0  0  0  0  0  0
   -2.9133  -11.6279   18.7578 C   0  0  0  0  0  0  0  0  0  0  0  0
    4.5688  -10.1291   29.5758 C   0  0  0  0  0  0  0  0  0  0  0  0
    2.1008   -9.0410   29.1852 N   0  0  0  0  0  0  0  0  0  0  0  0
    3.4829  -10.5697   30.2091 N   0  0  0  0  0  0  0  0  0  0  0  0
   -0.3363   -6.1172   27.5628 C   0  0  0  0  0  0  0  0  0  0  0  0
    3.0331   -7.4400   27.6362 C   0  0  0  0  0  0  0  0  0  0  0  0
    5.4553   -8.5933   27.9644 C   0  0  0  0  0  0  0  0  0  0  0  0
   -2.3870  -12.8440   19.2512 C   0  0  0  0  0  0  0  0  0  0  0  0
    0.5331   -7.6964   16.2751 C   0  0  0  0  0  0  0  0  0  0  0  0
   -0.6740  -10.8737   18.0482 C   0  0  0  0  0  0  0  0  0  0  0  0
    5.6751  -10.5870   29.7637 O   0  0  0  0  0  0  0  0  0  0  0  0
    1.7612   -5.6483   26.7172 C   0  0  0  0  0  0  0  0  0  0  0  0
    0.2221   -9.8326   17.4055 C   0  0  0  0  0  0  0  0  0  0  0  0
    4.3850   -9.0730   28.6745 C   0  0  0  0  0  0  0  0  0  0  0  0
  1  7  4  0
  1 22  4  0
  2 17  4  0
  2 20  4  0
  2 28  4  0
  3  6  1  0
  3 19  1  0
  4 19  1  0
  4 26  1  0
  5 17  4  0
  5 18  4  0
  6 20  1  0
  6 26  1  0
  7 24  4  0
  8 15  4  0
  8 24  4  0
  9 14  4  0
  9 21  4  0
 10 12  4  0
 10 27  4  0
 11 12  4  0
 11 23  4  0
 13 23  4  0
 13 27  4  0
 14 20  4  0
 15 22  4  0
 16 18  4  0
 16 25  2  0
 16 28  4  0
 21 28  4  0
 24 27  1  0
M  END
$$$$

 Created by Python create_sdf_string function

 28 31  0  0  0  0  0  0  0  0999 V2000
   -1.0054  -13.0622   19.1198 C   0  0  0  0  0  0  0  0  0  0  0  0
    3.1478   -8.5360   28.5161 C   0  0  0  0  0  0  0  0  0  0  0  0
    0.5798   -7.1906   27.9330 C   0  0  0  0  0  0  0  0  0  0  0  0
    0.3978   -5.1561   26.6955 C   0  0  0  0  0  0  0  0  0  0  0  0
    2.3063  -10.0533   30.0125 C   0  0  0  0  0  0  0  0  0  0  0  0
    1.8591   -6.8254   27.4685 N   0  0  0  0  0  0  0  0  0  0  0  0
   -0.2167  -12.1055   18.5568 C   0  0  0  0  0  0  0  0  0  0  0  0
   -2.0661  -10.6994   18.1916 C   0  0  0  0  0  0  0  0  0  0  0  0
    5.2703   -7.5691   27.1123 C   0  0  0  0  0  0  0  0  0  0  0  0
    1.6204   -9.9887   17.2935 C   0  0  0  0  0  0  0  0  0  0  0  0
    1.8931   -7.9265   16.2047 C   0  0  0  0  0  0  0  0  0  0  0  0
    2.4396   -9.0801   16.7132 C   0  0  0  0  0  0  0  0  0  0  0  0
   -0.2575   -8.6234   16.8582 C   0  0  0  0  0  0  0  0  0  0  0  0
    4.0614   -7.0367   27.0106 N   0  0  0  0  0  0  0  0  0  0  0  0
   -2.9133  -11.6279   18.7578 C   0  0  0  0  0  0  0  0  0  0  0  0
    4.5688  -10.1291   29.5758 C   0  0  0  0  0  0  0  0  0  0  0  0
    2.1008   -9.0410   29.1852 N   0  0  0  0  0  0  0  0  0  0  0  0
    3.4829  -10.5697   30.2091 N   0  0  0  0  0  0  0  0  0  0  0  0
   -0.3363   -6.1172   27.5628 C   0  0  0  0  0  0  0  0  0  0  0  0
    3.0331   -7.4400   27.6362 C   0  0  0  0  0  0  0  0  0  0  0  0
    5.4553   -8.5933   27.9644 C   0  0  0  0  0  0  0  0  0  0  0  0
   -2.3870  -12.8440   19.2512 C   0  0  0  0  0  0  0  0  0  0  0  0
    0.5331   -7.6964   16.2751 C   0  0  0  0  0  0  0  0  0  0  0  0
   -0.6740  -10.8737   18.0482 C   0  0  0  0  0  0  0  0  0  0  0  0
    5.6751  -10.5870   29.7637 O   0  0  0  0  0  0  0  0  0  0  0  0
    1.7612   -5.6483   26.7172 C   0  0  0  0  0  0  0  0  0  0  0  0
    0.2221   -9.8326   17.4055 C   0  0  0  0  0  0  0  0  0  0  0  0
    4.3850   -9.0730   28.6745 C   0  0  0  0  0  0  0  0  0  0  0  0
  1  7  4  0
  1 22  4  0
  2 17  4  0
  2 20  4  0
  2 28  4  0
  3  6  1  0
  3 19  1  0
  4 19  1  0
  4 26  1  0
  5 17  4  0
  5 18  4  0
  6 20  1  0
  6 26  1  0
  7 24  4  0
  8 15  4  0
  8 24  4  0
  9 14  4  0
  9 21  4  0
 10 12  4  0
 10 27  4  0
 11 12  4  0
 11 23  4  0
 13 23  4  0
 13 27  4  0
 14 20  4  0
 15 22  4  0
 16 18  4  0
 16 25  2  0
 16 28  4  0
 21 28  4  0
 24 27  1  0
M  END
$$$$

 Created by Python create_sdf_string function

 28 31  0  0  0  0  0  0  0  0999 V2000
   -1.0054  -13.0622   19.1198 C   0  0  0  0  0  0  0  0  0  0  0  0
    3.1478   -8.5360   28.5161 C   0  0  0  0  0  0  0  0  0  0  0  0
    0.5798   -7.1906   27.9330 C   0  0  0  0  0  0  0  0  0  0  0  0
    0.3978   -5.1561   26.6955 C   0  0  0  0  0  0  0  0  0  0  0  0
    2.3063  -10.0533   30.0125 C   0  0  0  0  0  0  0  0  0  0  0  0
    1.8591   -6.8254   27.4685 N   0  0  0  0  0  0  0  0  0  0  0  0
   -0.2167  -12.1055   18.5568 C   0  0  0  0  0  0  0  0  0  0  0  0
   -2.0661  -10.6994   18.1916 C   0  0  0  0  0  0  0  0  0  0  0  0
    5.2703   -7.5691   27.1123 C   0  0  0  0  0  0  0  0  0  0  0  0
    1.6204   -9.9887   17.2935 C   0  0  0  0  0  0  0  0  0  0  0  0
    1.8931   -7.9265   16.2047 C   0  0  0  0  0  0  0  0  0  0  0  0
    2.4396   -9.0801   16.7132 C   0  0  0  0  0  0  0  0  0  0  0  0
   -0.2575   -8.6234   16.8582 C   0  0  0  0  0  0  0  0  0  0  0  0
    4.0614   -7.0367   27.0106 N   0  0  0  0  0  0  0  0  0  0  0  0
   -2.9133  -11.6279   18.7578 C   0  0  0  0  0  0  0  0  0  0  0  0
    4.5688  -10.1291   29.5758 C   0  0  0  0  0  0  0  0  0  0  0  0
    2.1008   -9.0410   29.1852 N   0  0  0  0  0  0  0  0  0  0  0  0
    3.4829  -10.5697   30.2091 N   0  0  0  0  0  0  0  0  0  0  0  0
   -0.3363   -6.1172   27.5628 C   0  0  0  0  0  0  0  0  0  0  0  0
    3.0331   -7.4400   27.6362 C   0  0  0  0  0  0  0  0  0  0  0  0
    5.4553   -8.5933   27.9644 C   0  0  0  0  0  0  0  0  0  0  0  0
   -2.3870  -12.8440   19.2512 C   0  0  0  0  0  0  0  0  0  0  0  0
    0.5331   -7.6964   16.2751 C   0  0  0  0  0  0  0  0  0  0  0  0
   -0.6740  -10.8737   18.0482 C   0  0  0  0  0  0  0  0  0  0  0  0
    5.6751  -10.5870   29.7637 O   0  0  0  0  0  0  0  0  0  0  0  0
    1.7612   -5.6483   26.7172 C   0  0  0  0  0  0  0  0  0  0  0  0
    0.2221   -9.8326   17.4055 C   0  0  0  0  0  0  0  0  0  0  0  0
    4.3850   -9.0730   28.6745 C   0  0  0  0  0  0  0  0  0  0  0  0
  1  7  4  0
  1 22  4  0
  2 17  4  0
  2 20  4  0
  2 28  4  0
  3  6  1  0
  3 19  1  0
  4 19  1  0
  4 26  1  0
  5 17  4  0
  5 18  4  0
  6 20  1  0
  6 26  1  0
  7 24  4  0
  8 15  4  0
  8 24  4  0
  9 14  4  0
  9 21  4  0
 10 12  4  0
 10 27  4  0
 11 12  4  0
 11 23  4  0
 13 23  4  0
 13 27  4  0
 14 20  4  0
 15 22  4  0
 16 18  4  0
 16 25  2  0
 16 28  4  0
 21 28  4  0
 24 27  1  0
M  END
$$$$

 Created by Python create_sdf_string function

 28 31  0  0  0  0  0  0  0  0999 V2000
   -1.0054  -13.0622   19.1198 C   0  0  0  0  0  0  0  0  0  0  0  0
    3.1478   -8.5360   28.5161 C   0  0  0  0  0  0  0  0  0  0  0  0
    0.5798   -7.1906   27.9330 C   0  0  0  0  0  0  0  0  0  0  0  0
    0.3978   -5.1561   26.6955 C   0  0  0  0  0  0  0  0  0  0  0  0
    2.3063  -10.0533   30.0125 C   0  0  0  0  0  0  0  0  0  0  0  0
    1.8591   -6.8254   27.4685 N   0  0  0  0  0  0  0  0  0  0  0  0
   -0.2167  -12.1055   18.5568 C   0  0  0  0  0  0  0  0  0  0  0  0
   -2.0661  -10.6994   18.1916 C   0  0  0  0  0  0  0  0  0  0  0  0
    5.2703   -7.5691   27.1123 C   0  0  0  0  0  0  0  0  0  0  0  0
    1.6204   -9.9887   17.2935 C   0  0  0  0  0  0  0  0  0  0  0  0
    1.8931   -7.9265   16.2047 C   0  0  0  0  0  0  0  0  0  0  0  0
    2.4396   -9.0801   16.7132 C   0  0  0  0  0  0  0  0  0  0  0  0
   -0.2575   -8.6234   16.8582 C   0  0  0  0  0  0  0  0  0  0  0  0
    4.0614   -7.0367   27.0106 N   0  0  0  0  0  0  0  0  0  0  0  0
   -2.9133  -11.6279   18.7578 C   0  0  0  0  0  0  0  0  0  0  0  0
    4.5688  -10.1291   29.5758 C   0  0  0  0  0  0  0  0  0  0  0  0
    2.1008   -9.0410   29.1852 N   0  0  0  0  0  0  0  0  0  0  0  0
    3.4829  -10.5697   30.2091 N   0  0  0  0  0  0  0  0  0  0  0  0
   -0.3363   -6.1172   27.5628 C   0  0  0  0  0  0  0  0  0  0  0  0
    3.0331   -7.4400   27.6362 C   0  0  0  0  0  0  0  0  0  0  0  0
    5.4553   -8.5933   27.9644 C   0  0  0  0  0  0  0  0  0  0  0  0
   -2.3870  -12.8440   19.2512 C   0  0  0  0  0  0  0  0  0  0  0  0
    0.5331   -7.6964   16.2751 C   0  0  0  0  0  0  0  0  0  0  0  0
   -0.6740  -10.8737   18.0482 C   0  0  0  0  0  0  0  0  0  0  0  0
    5.6751  -10.5870   29.7637 O   0  0  0  0  0  0  0  0  0  0  0  0
    1.7612   -5.6483   26.7172 C   0  0  0  0  0  0  0  0  0  0  0  0
    0.2221   -9.8326   17.4055 C   0  0  0  0  0  0  0  0  0  0  0  0
    4.3850   -9.0730   28.6745 C   0  0  0  0  0  0  0  0  0  0  0  0
  1  7  4  0
  1 22  4  0
  2 17  4  0
  2 20  4  0
  2 28  4  0
  3  6  1  0
  3 19  1  0
  4 19  1  0
  4 26  1  0
  5 17  4  0
  5 18  4  0
  6 20  1  0
  6 26  1  0
  7 24  4  0
  8 15  4  0
  8 24  4  0
  9 14  4  0
  9 21  4  0
 10 12  4  0
 10 27  4  0
 11 12  4  0
 11 23  4  0
 13 23  4  0
 13 27  4  0
 14 20  4  0
 15 22  4  0
 16 18  4  0
 16 25  2  0
 16 28  4  0
 21 28  4  0
 24 27  1  0
M  END
$$$$

 Created by Python create_sdf_string function

 28 31  0  0  0  0  0  0  0  0999 V2000
   -1.0054  -13.0622   19.1198 C   0  0  0  0  0  0  0  0  0  0  0  0
    3.1478   -8.5360   28.5161 C   0  0  0  0  0  0  0  0  0  0  0  0
    0.5798   -7.1906   27.9330 C   0  0  0  0  0  0  0  0  0  0  0  0
    0.3978   -5.1561   26.6955 C   0  0  0  0  0  0  0  0  0  0  0  0
    2.3063  -10.0533   30.0125 C   0  0  0  0  0  0  0  0  0  0  0  0
    1.8591   -6.8254   27.4685 N   0  0  0  0  0  0  0  0  0  0  0  0
   -0.2167  -12.1055   18.5568 C   0  0  0  0  0  0  0  0  0  0  0  0
   -2.0661  -10.6994   18.1916 C   0  0  0  0  0  0  0  0  0  0  0  0
    5.2703   -7.5691   27.1123 C   0  0  0  0  0  0  0  0  0  0  0  0
    1.6204   -9.9887   17.2935 C   0  0  0  0  0  0  0  0  0  0  0  0
    1.8931   -7.9265   16.2047 C   0  0  0  0  0  0  0  0  0  0  0  0
    2.4396   -9.0801   16.7132 C   0  0  0  0  0  0  0  0  0  0  0  0
   -0.2575   -8.6234   16.8582 C   0  0  0  0  0  0  0  0  0  0  0  0
    4.0614   -7.0367   27.0106 N   0  0  0  0  0  0  0  0  0  0  0  0
   -2.9133  -11.6279   18.7578 C   0  0  0  0  0  0  0  0  0  0  0  0
    4.5688  -10.1291   29.5758 C   0  0  0  0  0  0  0  0  0  0  0  0
    2.1008   -9.0410   29.1852 N   0  0  0  0  0  0  0  0  0  0  0  0
    3.4829  -10.5697   30.2091 N   0  0  0  0  0  0  0  0  0  0  0  0
   -0.3363   -6.1172   27.5628 C   0  0  0  0  0  0  0  0  0  0  0  0
    3.0331   -7.4400   27.6362 C   0  0  0  0  0  0  0  0  0  0  0  0
    5.4553   -8.5933   27.9644 C   0  0  0  0  0  0  0  0  0  0  0  0
   -2.3870  -12.8440   19.2512 C   0  0  0  0  0  0  0  0  0  0  0  0
    0.5331   -7.6964   16.2751 C   0  0  0  0  0  0  0  0  0  0  0  0
   -0.6740  -10.8737   18.0482 C   0  0  0  0  0  0  0  0  0  0  0  0
    5.6751  -10.5870   29.7637 O   0  0  0  0  0  0  0  0  0  0  0  0
    1.7612   -5.6483   26.7172 C   0  0  0  0  0  0  0  0  0  0  0  0
    0.2221   -9.8326   17.4055 C   0  0  0  0  0  0  0  0  0  0  0  0
    4.3850   -9.0730   28.6745 C   0  0  0  0  0  0  0  0  0  0  0  0
  1  7  4  0
  1 22  4  0
  2 17  4  0
  2 20  4  0
  2 28  4  0
  3  6  1  0
  3 19  1  0
  4 19  1  0
  4 26  1  0
  5 17  4  0
  5 18  4  0
  6 20  1  0
  6 26  1  0
  7 24  4  0
  8 15  4  0
  8 24  4  0
  9 14  4  0
  9 21  4  0
 10 12  4  0
 10 27  4  0
 11 12  4  0
 11 23  4  0
 13 23  4  0
 13 27  4  0
 14 20  4  0
 15 22  4  0
 16 18  4  0
 16 25  2  0
 16 28  4  0
 21 28  4  0
 24 27  1  0
M  END
$$$$

 Created by Python create_sdf_string function

 28 31  0  0  0  0  0  0  0  0999 V2000
   -1.0054  -13.0622   19.1198 C   0  0  0  0  0  0  0  0  0  0  0  0
    3.1478   -8.5360   28.5161 C   0  0  0  0  0  0  0  0  0  0  0  0
    0.5798   -7.1906   27.9330 C   0  0  0  0  0  0  0  0  0  0  0  0
    0.3978   -5.1561   26.6955 C   0  0  0  0  0  0  0  0  0  0  0  0
    2.3063  -10.0533   30.0125 C   0  0  0  0  0  0  0  0  0  0  0  0
    1.8591   -6.8254   27.4685 N   0  0  0  0  0  0  0  0  0  0  0  0
   -0.2167  -12.1055   18.5568 C   0  0  0  0  0  0  0  0  0  0  0  0
   -2.0661  -10.6994   18.1916 C   0  0  0  0  0  0  0  0  0  0  0  0
    5.2703   -7.5691   27.1123 C   0  0  0  0  0  0  0  0  0  0  0  0
    1.6204   -9.9887   17.2935 C   0  0  0  0  0  0  0  0  0  0  0  0
    1.8931   -7.9265   16.2047 C   0  0  0  0  0  0  0  0  0  0  0  0
    2.4396   -9.0801   16.7132 C   0  0  0  0  0  0  0  0  0  0  0  0
   -0.2575   -8.6234   16.8582 C   0  0  0  0  0  0  0  0  0  0  0  0
    4.0614   -7.0367   27.0106 N   0  0  0  0  0  0  0  0  0  0  0  0
   -2.9133  -11.6279   18.7578 C   0  0  0  0  0  0  0  0  0  0  0  0
    4.5688  -10.1291   29.5758 C   0  0  0  0  0  0  0  0  0  0  0  0
    2.1008   -9.0410   29.1852 N   0  0  0  0  0  0  0  0  0  0  0  0
    3.4829  -10.5697   30.2091 N   0  0  0  0  0  0  0  0  0  0  0  0
   -0.3363   -6.1172   27.5628 C   0  0  0  0  0  0  0  0  0  0  0  0
    3.0331   -7.4400   27.6362 C   0  0  0  0  0  0  0  0  0  0  0  0
    5.4553   -8.5933   27.9644 C   0  0  0  0  0  0  0  0  0  0  0  0
   -2.3870  -12.8440   19.2512 C   0  0  0  0  0  0  0  0  0  0  0  0
    0.5331   -7.6964   16.2751 C   0  0  0  0  0  0  0  0  0  0  0  0
   -0.6740  -10.8737   18.0482 C   0  0  0  0  0  0  0  0  0  0  0  0
    5.6751  -10.5870   29.7637 O   0  0  0  0  0  0  0  0  0  0  0  0
    1.7612   -5.6483   26.7172 C   0  0  0  0  0  0  0  0  0  0  0  0
    0.2221   -9.8326   17.4055 C   0  0  0  0  0  0  0  0  0  0  0  0
    4.3850   -9.0730   28.6745 C   0  0  0  0  0  0  0  0  0  0  0  0
  1  7  4  0
  1 22  4  0
  2 17  4  0
  2 20  4  0
  2 28  4  0
  3  6  1  0
  3 19  1  0
  4 19  1  0
  4 26  1  0
  5 17  4  0
  5 18  4  0
  6 20  1  0
  6 26  1  0
  7 24  4  0
  8 15  4  0
  8 24  4  0
  9 14  4  0
  9 21  4  0
 10 12  4  0
 10 27  4  0
 11 12  4  0
 11 23  4  0
 13 23  4  0
 13 27  4  0
 14 20  4  0
 15 22  4  0
 16 18  4  0
 16 25  2  0
 16 28  4  0
 21 28  4  0
 24 27  1  0
M  END
$$$$

 Created by Python create_sdf_string function

 28 31  0  0  0  0  0  0  0  0999 V2000
   -1.0054  -13.0622   19.1198 C   0  0  0  0  0  0  0  0  0  0  0  0
    3.1478   -8.5360   28.5161 C   0  0  0  0  0  0  0  0  0  0  0  0
    0.5798   -7.1906   27.9330 C   0  0  0  0  0  0  0  0  0  0  0  0
    0.3978   -5.1561   26.6955 C   0  0  0  0  0  0  0  0  0  0  0  0
    2.3063  -10.0533   30.0125 C   0  0  0  0  0  0  0  0  0  0  0  0
    1.8591   -6.8254   27.4685 N   0  0  0  0  0  0  0  0  0  0  0  0
   -0.2167  -12.1055   18.5568 C   0  0  0  0  0  0  0  0  0  0  0  0
   -2.0661  -10.6994   18.1916 C   0  0  0  0  0  0  0  0  0  0  0  0
    5.2703   -7.5691   27.1123 C   0  0  0  0  0  0  0  0  0  0  0  0
    1.6204   -9.9887   17.2935 C   0  0  0  0  0  0  0  0  0  0  0  0
    1.8931   -7.9265   16.2047 C   0  0  0  0  0  0  0  0  0  0  0  0
    2.4396   -9.0801   16.7132 C   0  0  0  0  0  0  0  0  0  0  0  0
   -0.2575   -8.6234   16.8582 C   0  0  0  0  0  0  0  0  0  0  0  0
    4.0614   -7.0367   27.0106 N   0  0  0  0  0  0  0  0  0  0  0  0
   -2.9133  -11.6279   18.7578 C   0  0  0  0  0  0  0  0  0  0  0  0
    4.5688  -10.1291   29.5758 C   0  0  0  0  0  0  0  0  0  0  0  0
    2.1008   -9.0410   29.1852 N   0  0  0  0  0  0  0  0  0  0  0  0
    3.4829  -10.5697   30.2091 N   0  0  0  0  0  0  0  0  0  0  0  0
   -0.3363   -6.1172   27.5628 C   0  0  0  0  0  0  0  0  0  0  0  0
    3.0331   -7.4400   27.6362 C   0  0  0  0  0  0  0  0  0  0  0  0
    5.4553   -8.5933   27.9644 C   0  0  0  0  0  0  0  0  0  0  0  0
   -2.3870  -12.8440   19.2512 C   0  0  0  0  0  0  0  0  0  0  0  0
    0.5331   -7.6964   16.2751 C   0  0  0  0  0  0  0  0  0  0  0  0
   -0.6740  -10.8737   18.0482 C   0  0  0  0  0  0  0  0  0  0  0  0
    5.6751  -10.5870   29.7637 O   0  0  0  0  0  0  0  0  0  0  0  0
    1.7612   -5.6483   26.7172 C   0  0  0  0  0  0  0  0  0  0  0  0
    0.2221   -9.8326   17.4055 C   0  0  0  0  0  0  0  0  0  0  0  0
    4.3850   -9.0730   28.6745 C   0  0  0  0  0  0  0  0  0  0  0  0
  1  7  4  0
  1 22  4  0
  2 17  4  0
  2 20  4  0
  2 28  4  0
  3  6  1  0
  3 19  1  0
  4 19  1  0
  4 26  1  0
  5 17  4  0
  5 18  4  0
  6 20  1  0
  6 26  1  0
  7 24  4  0
  8 15  4  0
  8 24  4  0
  9 14  4  0
  9 21  4  0
 10 12  4  0
 10 27  4  0
 11 12  4  0
 11 23  4  0
 13 23  4  0
 13 27  4  0
 14 20  4  0
 15 22  4  0
 16 18  4  0
 16 25  2  0
 16 28  4  0
 21 28  4  0
 24 27  1  0
M  END
$$$$

 Created by Python create_sdf_string function

 28 31  0  0  0  0  0  0  0  0999 V2000
   -1.0054  -13.0622   19.1198 C   0  0  0  0  0  0  0  0  0  0  0  0
    3.1478   -8.5360   28.5161 C   0  0  0  0  0  0  0  0  0  0  0  0
    0.5798   -7.1906   27.9330 C   0  0  0  0  0  0  0  0  0  0  0  0
    0.3978   -5.1561   26.6955 C   0  0  0  0  0  0  0  0  0  0  0  0
    2.3063  -10.0533   30.0125 C   0  0  0  0  0  0  0  0  0  0  0  0
    1.8591   -6.8254   27.4685 N   0  0  0  0  0  0  0  0  0  0  0  0
   -0.2167  -12.1055   18.5568 C   0  0  0  0  0  0  0  0  0  0  0  0
   -2.0661  -10.6994   18.1916 C   0  0  0  0  0  0  0  0  0  0  0  0
    5.2703   -7.5691   27.1123 C   0  0  0  0  0  0  0  0  0  0  0  0
    1.6204   -9.9887   17.2935 C   0  0  0  0  0  0  0  0  0  0  0  0
    1.8931   -7.9265   16.2047 C   0  0  0  0  0  0  0  0  0  0  0  0
    2.4396   -9.0801   16.7132 C   0  0  0  0  0  0  0  0  0  0  0  0
   -0.2575   -8.6234   16.8582 C   0  0  0  0  0  0  0  0  0  0  0  0
    4.0614   -7.0367   27.0106 N   0  0  0  0  0  0  0  0  0  0  0  0
   -2.9133  -11.6279   18.7578 C   0  0  0  0  0  0  0  0  0  0  0  0
    4.5688  -10.1291   29.5758 C   0  0  0  0  0  0  0  0  0  0  0  0
    2.1008   -9.0410   29.1852 N   0  0  0  0  0  0  0  0  0  0  0  0
    3.4829  -10.5697   30.2091 N   0  0  0  0  0  0  0  0  0  0  0  0
   -0.3363   -6.1172   27.5628 C   0  0  0  0  0  0  0  0  0  0  0  0
    3.0331   -7.4400   27.6362 C   0  0  0  0  0  0  0  0  0  0  0  0
    5.4553   -8.5933   27.9644 C   0  0  0  0  0  0  0  0  0  0  0  0
   -2.3870  -12.8440   19.2512 C   0  0  0  0  0  0  0  0  0  0  0  0
    0.5331   -7.6964   16.2751 C   0  0  0  0  0  0  0  0  0  0  0  0
   -0.6740  -10.8737   18.0482 C   0  0  0  0  0  0  0  0  0  0  0  0
    5.6751  -10.5870   29.7637 O   0  0  0  0  0  0  0  0  0  0  0  0
    1.7612   -5.6483   26.7172 C   0  0  0  0  0  0  0  0  0  0  0  0
    0.2221   -9.8326   17.4055 C   0  0  0  0  0  0  0  0  0  0  0  0
    4.3850   -9.0730   28.6745 C   0  0  0  0  0  0  0  0  0  0  0  0
  1  7  4  0
  1 22  4  0
  2 17  4  0
  2 20  4  0
  2 28  4  0
  3  6  1  0
  3 19  1  0
  4 19  1  0
  4 26  1  0
  5 17  4  0
  5 18  4  0
  6 20  1  0
  6 26  1  0
  7 24  4  0
  8 15  4  0
  8 24  4  0
  9 14  4  0
  9 21  4  0
 10 12  4  0
 10 27  4  0
 11 12  4  0
 11 23  4  0
 13 23  4  0
 13 27  4  0
 14 20  4  0
 15 22  4  0
 16 18  4  0
 16 25  2  0
 16 28  4  0
 21 28  4  0
 24 27  1  0
M  END
$$$$

 Created by Python create_sdf_string function

 28 31  0  0  0  0  0  0  0  0999 V2000
   -1.0054  -13.0622   19.1198 C   0  0  0  0  0  0  0  0  0  0  0  0
    3.1478   -8.5360   28.5161 C   0  0  0  0  0  0  0  0  0  0  0  0
    0.5798   -7.1906   27.9330 C   0  0  0  0  0  0  0  0  0  0  0  0
    0.3978   -5.1561   26.6955 C   0  0  0  0  0  0  0  0  0  0  0  0
    2.3063  -10.0533   30.0125 C   0  0  0  0  0  0  0  0  0  0  0  0
    1.8591   -6.8254   27.4685 N   0  0  0  0  0  0  0  0  0  0  0  0
   -0.2167  -12.1055   18.5568 C   0  0  0  0  0  0  0  0  0  0  0  0
   -2.0661  -10.6994   18.1916 C   0  0  0  0  0  0  0  0  0  0  0  0
    5.2703   -7.5691   27.1123 C   0  0  0  0  0  0  0  0  0  0  0  0
    1.6204   -9.9887   17.2935 C   0  0  0  0  0  0  0  0  0  0  0  0
    1.8931   -7.9265   16.2047 C   0  0  0  0  0  0  0  0  0  0  0  0
    2.4396   -9.0801   16.7132 C   0  0  0  0  0  0  0  0  0  0  0  0
   -0.2575   -8.6234   16.8582 C   0  0  0  0  0  0  0  0  0  0  0  0
    4.0614   -7.0367   27.0106 N   0  0  0  0  0  0  0  0  0  0  0  0
   -2.9133  -11.6279   18.7578 C   0  0  0  0  0  0  0  0  0  0  0  0
    4.5688  -10.1291   29.5758 C   0  0  0  0  0  0  0  0  0  0  0  0
    2.1008   -9.0410   29.1852 N   0  0  0  0  0  0  0  0  0  0  0  0
    3.4829  -10.5697   30.2091 N   0  0  0  0  0  0  0  0  0  0  0  0
   -0.3363   -6.1172   27.5628 C   0  0  0  0  0  0  0  0  0  0  0  0
    3.0331   -7.4400   27.6362 C   0  0  0  0  0  0  0  0  0  0  0  0
    5.4553   -8.5933   27.9644 C   0  0  0  0  0  0  0  0  0  0  0  0
   -2.3870  -12.8440   19.2512 C   0  0  0  0  0  0  0  0  0  0  0  0
    0.5331   -7.6964   16.2751 C   0  0  0  0  0  0  0  0  0  0  0  0
   -0.6740  -10.8737   18.0482 C   0  0  0  0  0  0  0  0  0  0  0  0
    5.6751  -10.5870   29.7637 O   0  0  0  0  0  0  0  0  0  0  0  0
    1.7612   -5.6483   26.7172 C   0  0  0  0  0  0  0  0  0  0  0  0
    0.2221   -9.8326   17.4055 C   0  0  0  0  0  0  0  0  0  0  0  0
    4.3850   -9.0730   28.6745 C   0  0  0  0  0  0  0  0  0  0  0  0
  1  7  4  0
  1 22  4  0
  2 17  4  0
  2 20  4  0
  2 28  4  0
  3  6  1  0
  3 19  1  0
  4 19  1  0
  4 26  1  0
  5 17  4  0
  5 18  4  0
  6 20  1  0
  6 26  1  0
  7 24  4  0
  8 15  4  0
  8 24  4  0
  9 14  4  0
  9 21  4  0
 10 12  4  0
 10 27  4  0
 11 12  4  0
 11 23  4  0
 13 23  4  0
 13 27  4  0
 14 20  4  0
 15 22  4  0
 16 18  4  0
 16 25  2  0
 16 28  4  0
 21 28  4  0
 24 27  1  0
M  END
$$$$

 Created by Python create_sdf_string function

 28 31  0  0  0  0  0  0  0  0999 V2000
   -1.0054  -13.0622   19.1198 C   0  0  0  0  0  0  0  0  0  0  0  0
    3.1478   -8.5360   28.5161 C   0  0  0  0  0  0  0  0  0  0  0  0
    0.5798   -7.1906   27.9330 C   0  0  0  0  0  0  0  0  0  0  0  0
    0.3978   -5.1561   26.6955 C   0  0  0  0  0  0  0  0  0  0  0  0
    2.3063  -10.0533   30.0125 C   0  0  0  0  0  0  0  0  0  0  0  0
    1.8591   -6.8254   27.4685 N   0  0  0  0  0  0  0  0  0  0  0  0
   -0.2167  -12.1055   18.5568 C   0  0  0  0  0  0  0  0  0  0  0  0
   -2.0661  -10.6994   18.1916 C   0  0  0  0  0  0  0  0  0  0  0  0
    5.2703   -7.5691   27.1123 C   0  0  0  0  0  0  0  0  0  0  0  0
    1.6204   -9.9887   17.2935 C   0  0  0  0  0  0  0  0  0  0  0  0
    1.8931   -7.9265   16.2047 C   0  0  0  0  0  0  0  0  0  0  0  0
    2.4396   -9.0801   16.7132 C   0  0  0  0  0  0  0  0  0  0  0  0
   -0.2575   -8.6234   16.8582 C   0  0  0  0  0  0  0  0  0  0  0  0
    4.0614   -7.0367   27.0106 N   0  0  0  0  0  0  0  0  0  0  0  0
   -2.9133  -11.6279   18.7578 C   0  0  0  0  0  0  0  0  0  0  0  0
    4.5688  -10.1291   29.5758 C   0  0  0  0  0  0  0  0  0  0  0  0
    2.1008   -9.0410   29.1852 N   0  0  0  0  0  0  0  0  0  0  0  0
    3.4829  -10.5697   30.2091 N   0  0  0  0  0  0  0  0  0  0  0  0
   -0.3363   -6.1172   27.5628 C   0  0  0  0  0  0  0  0  0  0  0  0
    3.0331   -7.4400   27.6362 C   0  0  0  0  0  0  0  0  0  0  0  0
    5.4553   -8.5933   27.9644 C   0  0  0  0  0  0  0  0  0  0  0  0
   -2.3870  -12.8440   19.2512 C   0  0  0  0  0  0  0  0  0  0  0  0
    0.5331   -7.6964   16.2751 C   0  0  0  0  0  0  0  0  0  0  0  0
   -0.6740  -10.8737   18.0482 C   0  0  0  0  0  0  0  0  0  0  0  0
    5.6751  -10.5870   29.7637 O   0  0  0  0  0  0  0  0  0  0  0  0
    1.7612   -5.6483   26.7172 C   0  0  0  0  0  0  0  0  0  0  0  0
    0.2221   -9.8326   17.4055 C   0  0  0  0  0  0  0  0  0  0  0  0
    4.3850   -9.0730   28.6745 C   0  0  0  0  0  0  0  0  0  0  0  0
  1  7  4  0
  1 22  4  0
  2 17  4  0
  2 20  4  0
  2 28  4  0
  3  6  1  0
  3 19  1  0
  4 19  1  0
  4 26  1  0
  5 17  4  0
  5 18  4  0
  6 20  1  0
  6 26  1  0
  7 24  4  0
  8 15  4  0
  8 24  4  0
  9 14  4  0
  9 21  4  0
 10 12  4  0
 10 27  4  0
 11 12  4  0
 11 23  4  0
 13 23  4  0
 13 27  4  0
 14 20  4  0
 15 22  4  0
 16 18  4  0
 16 25  2  0
 16 28  4  0
 21 28  4  0
 24 27  1  0
M  END
$$$$

 Created by Python create_sdf_string function

 28 31  0  0  0  0  0  0  0  0999 V2000
   -1.0054  -13.0622   19.1198 C   0  0  0  0  0  0  0  0  0  0  0  0
    3.1478   -8.5360   28.5161 C   0  0  0  0  0  0  0  0  0  0  0  0
    0.5798   -7.1906   27.9330 C   0  0  0  0  0  0  0  0  0  0  0  0
    0.3978   -5.1561   26.6955 C   0  0  0  0  0  0  0  0  0  0  0  0
    2.3063  -10.0533   30.0125 C   0  0  0  0  0  0  0  0  0  0  0  0
    1.8591   -6.8254   27.4685 N   0  0  0  0  0  0  0  0  0  0  0  0
   -0.2167  -12.1055   18.5568 C   0  0  0  0  0  0  0  0  0  0  0  0
   -2.0661  -10.6994   18.1916 C   0  0  0  0  0  0  0  0  0  0  0  0
    5.2703   -7.5691   27.1123 C   0  0  0  0  0  0  0  0  0  0  0  0
    1.6204   -9.9887   17.2935 C   0  0  0  0  0  0  0  0  0  0  0  0
    1.8931   -7.9265   16.2047 C   0  0  0  0  0  0  0  0  0  0  0  0
    2.4396   -9.0801   16.7132 C   0  0  0  0  0  0  0  0  0  0  0  0
   -0.2575   -8.6234   16.8582 C   0  0  0  0  0  0  0  0  0  0  0  0
    4.0614   -7.0367   27.0106 N   0  0  0  0  0  0  0  0  0  0  0  0
   -2.9133  -11.6279   18.7578 C   0  0  0  0  0  0  0  0  0  0  0  0
    4.5688  -10.1291   29.5758 C   0  0  0  0  0  0  0  0  0  0  0  0
    2.1008   -9.0410   29.1852 N   0  0  0  0  0  0  0  0  0  0  0  0
    3.4829  -10.5697   30.2091 N   0  0  0  0  0  0  0  0  0  0  0  0
   -0.3363   -6.1172   27.5628 C   0  0  0  0  0  0  0  0  0  0  0  0
    3.0331   -7.4400   27.6362 C   0  0  0  0  0  0  0  0  0  0  0  0
    5.4553   -8.5933   27.9644 C   0  0  0  0  0  0  0  0  0  0  0  0
   -2.3870  -12.8440   19.2512 C   0  0  0  0  0  0  0  0  0  0  0  0
    0.5331   -7.6964   16.2751 C   0  0  0  0  0  0  0  0  0  0  0  0
   -0.6740  -10.8737   18.0482 C   0  0  0  0  0  0  0  0  0  0  0  0
    5.6751  -10.5870   29.7637 O   0  0  0  0  0  0  0  0  0  0  0  0
    1.7612   -5.6483   26.7172 C   0  0  0  0  0  0  0  0  0  0  0  0
    0.2221   -9.8326   17.4055 C   0  0  0  0  0  0  0  0  0  0  0  0
    4.3850   -9.0730   28.6745 C   0  0  0  0  0  0  0  0  0  0  0  0
  1  7  4  0
  1 22  4  0
  2 17  4  0
  2 20  4  0
  2 28  4  0
  3  6  1  0
  3 19  1  0
  4 19  1  0
  4 26  1  0
  5 17  4  0
  5 18  4  0
  6 20  1  0
  6 26  1  0
  7 24  4  0
  8 15  4  0
  8 24  4  0
  9 14  4  0
  9 21  4  0
 10 12  4  0
 10 27  4  0
 11 12  4  0
 11 23  4  0
 13 23  4  0
 13 27  4  0
 14 20  4  0
 15 22  4  0
 16 18  4  0
 16 25  2  0
 16 28  4  0
 21 28  4  0
 24 27  1  0
M  END
$$$$

 Created by Python create_sdf_string function

 28 31  0  0  0  0  0  0  0  0999 V2000
   -1.0054  -13.0622   19.1198 C   0  0  0  0  0  0  0  0  0  0  0  0
    3.1478   -8.5360   28.5161 C   0  0  0  0  0  0  0  0  0  0  0  0
    0.5798   -7.1906   27.9330 C   0  0  0  0  0  0  0  0  0  0  0  0
    0.3978   -5.1561   26.6955 C   0  0  0  0  0  0  0  0  0  0  0  0
    2.3063  -10.0533   30.0125 C   0  0  0  0  0  0  0  0  0  0  0  0
    1.8591   -6.8254   27.4685 N   0  0  0  0  0  0  0  0  0  0  0  0
   -0.2167  -12.1055   18.5568 C   0  0  0  0  0  0  0  0  0  0  0  0
   -2.0661  -10.6994   18.1916 C   0  0  0  0  0  0  0  0  0  0  0  0
    5.2703   -7.5691   27.1123 C   0  0  0  0  0  0  0  0  0  0  0  0
    1.6204   -9.9887   17.2935 C   0  0  0  0  0  0  0  0  0  0  0  0
    1.8931   -7.9265   16.2047 C   0  0  0  0  0  0  0  0  0  0  0  0
    2.4396   -9.0801   16.7132 C   0  0  0  0  0  0  0  0  0  0  0  0
   -0.2575   -8.6234   16.8582 C   0  0  0  0  0  0  0  0  0  0  0  0
    4.0614   -7.0367   27.0106 N   0  0  0  0  0  0  0  0  0  0  0  0
   -2.9133  -11.6279   18.7578 C   0  0  0  0  0  0  0  0  0  0  0  0
    4.5688  -10.1291   29.5758 C   0  0  0  0  0  0  0  0  0  0  0  0
    2.1008   -9.0410   29.1852 N   0  0  0  0  0  0  0  0  0  0  0  0
    3.4829  -10.5697   30.2091 N   0  0  0  0  0  0  0  0  0  0  0  0
   -0.3363   -6.1172   27.5628 C   0  0  0  0  0  0  0  0  0  0  0  0
    3.0331   -7.4400   27.6362 C   0  0  0  0  0  0  0  0  0  0  0  0
    5.4553   -8.5933   27.9644 C   0  0  0  0  0  0  0  0  0  0  0  0
   -2.3870  -12.8440   19.2512 C   0  0  0  0  0  0  0  0  0  0  0  0
    0.5331   -7.6964   16.2751 C   0  0  0  0  0  0  0  0  0  0  0  0
   -0.6740  -10.8737   18.0482 C   0  0  0  0  0  0  0  0  0  0  0  0
    5.6751  -10.5870   29.7637 O   0  0  0  0  0  0  0  0  0  0  0  0
    1.7612   -5.6483   26.7172 C   0  0  0  0  0  0  0  0  0  0  0  0
    0.2221   -9.8326   17.4055 C   0  0  0  0  0  0  0  0  0  0  0  0
    4.3850   -9.0730   28.6745 C   0  0  0  0  0  0  0  0  0  0  0  0
  1  7  4  0
  1 22  4  0
  2 17  4  0
  2 20  4  0
  2 28  4  0
  3  6  1  0
  3 19  1  0
  4 19  1  0
  4 26  1  0
  5 17  4  0
  5 18  4  0
  6 20  1  0
  6 26  1  0
  7 24  4  0
  8 15  4  0
  8 24  4  0
  9 14  4  0
  9 21  4  0
 10 12  4  0
 10 27  4  0
 11 12  4  0
 11 23  4  0
 13 23  4  0
 13 27  4  0
 14 20  4  0
 15 22  4  0
 16 18  4  0
 16 25  2  0
 16 28  4  0
 21 28  4  0
 24 27  1  0
M  END
$$$$

 Created by Python create_sdf_string function

 28 31  0  0  0  0  0  0  0  0999 V2000
   -1.0054  -13.0622   19.1198 C   0  0  0  0  0  0  0  0  0  0  0  0
    3.1478   -8.5360   28.5161 C   0  0  0  0  0  0  0  0  0  0  0  0
    0.5798   -7.1906   27.9330 C   0  0  0  0  0  0  0  0  0  0  0  0
    0.3978   -5.1561   26.6955 C   0  0  0  0  0  0  0  0  0  0  0  0
    2.3063  -10.0533   30.0125 C   0  0  0  0  0  0  0  0  0  0  0  0
    1.8591   -6.8254   27.4685 N   0  0  0  0  0  0  0  0  0  0  0  0
   -0.2167  -12.1055   18.5568 C   0  0  0  0  0  0  0  0  0  0  0  0
   -2.0661  -10.6994   18.1916 C   0  0  0  0  0  0  0  0  0  0  0  0
    5.2703   -7.5691   27.1123 C   0  0  0  0  0  0  0  0  0  0  0  0
    1.6204   -9.9887   17.2935 C   0  0  0  0  0  0  0  0  0  0  0  0
    1.8931   -7.9265   16.2047 C   0  0  0  0  0  0  0  0  0  0  0  0
    2.4396   -9.0801   16.7132 C   0  0  0  0  0  0  0  0  0  0  0  0
   -0.2575   -8.6234   16.8582 C   0  0  0  0  0  0  0  0  0  0  0  0
    4.0614   -7.0367   27.0106 N   0  0  0  0  0  0  0  0  0  0  0  0
   -2.9133  -11.6279   18.7578 C   0  0  0  0  0  0  0  0  0  0  0  0
    4.5688  -10.1291   29.5758 C   0  0  0  0  0  0  0  0  0  0  0  0
    2.1008   -9.0410   29.1852 N   0  0  0  0  0  0  0  0  0  0  0  0
    3.4829  -10.5697   30.2091 N   0  0  0  0  0  0  0  0  0  0  0  0
   -0.3363   -6.1172   27.5628 C   0  0  0  0  0  0  0  0  0  0  0  0
    3.0331   -7.4400   27.6362 C   0  0  0  0  0  0  0  0  0  0  0  0
    5.4553   -8.5933   27.9644 C   0  0  0  0  0  0  0  0  0  0  0  0
   -2.3870  -12.8440   19.2512 C   0  0  0  0  0  0  0  0  0  0  0  0
    0.5331   -7.6964   16.2751 C   0  0  0  0  0  0  0  0  0  0  0  0
   -0.6740  -10.8737   18.0482 C   0  0  0  0  0  0  0  0  0  0  0  0
    5.6751  -10.5870   29.7637 O   0  0  0  0  0  0  0  0  0  0  0  0
    1.7612   -5.6483   26.7172 C   0  0  0  0  0  0  0  0  0  0  0  0
    0.2221   -9.8326   17.4055 C   0  0  0  0  0  0  0  0  0  0  0  0
    4.3850   -9.0730   28.6745 C   0  0  0  0  0  0  0  0  0  0  0  0
  1  7  4  0
  1 22  4  0
  2 17  4  0
  2 20  4  0
  2 28  4  0
  3  6  1  0
  3 19  1  0
  4 19  1  0
  4 26  1  0
  5 17  4  0
  5 18  4  0
  6 20  1  0
  6 26  1  0
  7 24  4  0
  8 15  4  0
  8 24  4  0
  9 14  4  0
  9 21  4  0
 10 12  4  0
 10 27  4  0
 11 12  4  0
 11 23  4  0
 13 23  4  0
 13 27  4  0
 14 20  4  0
 15 22  4  0
 16 18  4  0
 16 25  2  0
 16 28  4  0
 21 28  4  0
 24 27  1  0
M  END
$$$$

 Created by Python create_sdf_string function

 28 31  0  0  0  0  0  0  0  0999 V2000
   -1.0054  -13.0622   19.1198 C   0  0  0  0  0  0  0  0  0  0  0  0
    3.1478   -8.5360   28.5161 C   0  0  0  0  0  0  0  0  0  0  0  0
    0.5798   -7.1906   27.9330 C   0  0  0  0  0  0  0  0  0  0  0  0
    0.3978   -5.1561   26.6955 C   0  0  0  0  0  0  0  0  0  0  0  0
    2.3063  -10.0533   30.0125 C   0  0  0  0  0  0  0  0  0  0  0  0
    1.8591   -6.8254   27.4685 N   0  0  0  0  0  0  0  0  0  0  0  0
   -0.2167  -12.1055   18.5568 C   0  0  0  0  0  0  0  0  0  0  0  0
   -2.0661  -10.6994   18.1916 C   0  0  0  0  0  0  0  0  0  0  0  0
    5.2703   -7.5691   27.1123 C   0  0  0  0  0  0  0  0  0  0  0  0
    1.6204   -9.9887   17.2935 C   0  0  0  0  0  0  0  0  0  0  0  0
    1.8931   -7.9265   16.2047 C   0  0  0  0  0  0  0  0  0  0  0  0
    2.4396   -9.0801   16.7132 C   0  0  0  0  0  0  0  0  0  0  0  0
   -0.2575   -8.6234   16.8582 C   0  0  0  0  0  0  0  0  0  0  0  0
    4.0614   -7.0367   27.0106 N   0  0  0  0  0  0  0  0  0  0  0  0
   -2.9133  -11.6279   18.7578 C   0  0  0  0  0  0  0  0  0  0  0  0
    4.5688  -10.1291   29.5758 C   0  0  0  0  0  0  0  0  0  0  0  0
    2.1008   -9.0410   29.1852 N   0  0  0  0  0  0  0  0  0  0  0  0
    3.4829  -10.5697   30.2091 N   0  0  0  0  0  0  0  0  0  0  0  0
   -0.3363   -6.1172   27.5628 C   0  0  0  0  0  0  0  0  0  0  0  0
    3.0331   -7.4400   27.6362 C   0  0  0  0  0  0  0  0  0  0  0  0
    5.4553   -8.5933   27.9644 C   0  0  0  0  0  0  0  0  0  0  0  0
   -2.3870  -12.8440   19.2512 C   0  0  0  0  0  0  0  0  0  0  0  0
    0.5331   -7.6964   16.2751 C   0  0  0  0  0  0  0  0  0  0  0  0
   -0.6740  -10.8737   18.0482 C   0  0  0  0  0  0  0  0  0  0  0  0
    5.6751  -10.5870   29.7637 O   0  0  0  0  0  0  0  0  0  0  0  0
    1.7612   -5.6483   26.7172 C   0  0  0  0  0  0  0  0  0  0  0  0
    0.2221   -9.8326   17.4055 C   0  0  0  0  0  0  0  0  0  0  0  0
    4.3850   -9.0730   28.6745 C   0  0  0  0  0  0  0  0  0  0  0  0
  1  7  4  0
  1 22  4  0
  2 17  4  0
  2 20  4  0
  2 28  4  0
  3  6  1  0
  3 19  1  0
  4 19  1  0
  4 26  1  0
  5 17  4  0
  5 18  4  0
  6 20  1  0
  6 26  1  0
  7 24  4  0
  8 15  4  0
  8 24  4  0
  9 14  4  0
  9 21  4  0
 10 12  4  0
 10 27  4  0
 11 12  4  0
 11 23  4  0
 13 23  4  0
 13 27  4  0
 14 20  4  0
 15 22  4  0
 16 18  4  0
 16 25  2  0
 16 28  4  0
 21 28  4  0
 24 27  1  0
M  END
$$$$

 Created by Python create_sdf_string function

 28 31  0  0  0  0  0  0  0  0999 V2000
   -1.0054  -13.0622   19.1198 C   0  0  0  0  0  0  0  0  0  0  0  0
    3.1478   -8.5360   28.5161 C   0  0  0  0  0  0  0  0  0  0  0  0
    0.5798   -7.1906   27.9330 C   0  0  0  0  0  0  0  0  0  0  0  0
    0.3978   -5.1561   26.6955 C   0  0  0  0  0  0  0  0  0  0  0  0
    2.3063  -10.0533   30.0125 C   0  0  0  0  0  0  0  0  0  0  0  0
    1.8591   -6.8254   27.4685 N   0  0  0  0  0  0  0  0  0  0  0  0
   -0.2167  -12.1055   18.5568 C   0  0  0  0  0  0  0  0  0  0  0  0
   -2.0661  -10.6994   18.1916 C   0  0  0  0  0  0  0  0  0  0  0  0
    5.2703   -7.5691   27.1123 C   0  0  0  0  0  0  0  0  0  0  0  0
    1.6204   -9.9887   17.2935 C   0  0  0  0  0  0  0  0  0  0  0  0
    1.8931   -7.9265   16.2047 C   0  0  0  0  0  0  0  0  0  0  0  0
    2.4396   -9.0801   16.7132 C   0  0  0  0  0  0  0  0  0  0  0  0
   -0.2575   -8.6234   16.8582 C   0  0  0  0  0  0  0  0  0  0  0  0
    4.0614   -7.0367   27.0106 N   0  0  0  0  0  0  0  0  0  0  0  0
   -2.9133  -11.6279   18.7578 C   0  0  0  0  0  0  0  0  0  0  0  0
    4.5688  -10.1291   29.5758 C   0  0  0  0  0  0  0  0  0  0  0  0
    2.1008   -9.0410   29.1852 N   0  0  0  0  0  0  0  0  0  0  0  0
    3.4829  -10.5697   30.2091 N   0  0  0  0  0  0  0  0  0  0  0  0
   -0.3363   -6.1172   27.5628 C   0  0  0  0  0  0  0  0  0  0  0  0
    3.0331   -7.4400   27.6362 C   0  0  0  0  0  0  0  0  0  0  0  0
    5.4553   -8.5933   27.9644 C   0  0  0  0  0  0  0  0  0  0  0  0
   -2.3870  -12.8440   19.2512 C   0  0  0  0  0  0  0  0  0  0  0  0
    0.5331   -7.6964   16.2751 C   0  0  0  0  0  0  0  0  0  0  0  0
   -0.6740  -10.8737   18.0482 C   0  0  0  0  0  0  0  0  0  0  0  0
    5.6751  -10.5870   29.7637 O   0  0  0  0  0  0  0  0  0  0  0  0
    1.7612   -5.6483   26.7172 C   0  0  0  0  0  0  0  0  0  0  0  0
    0.2221   -9.8326   17.4055 C   0  0  0  0  0  0  0  0  0  0  0  0
    4.3850   -9.0730   28.6745 C   0  0  0  0  0  0  0  0  0  0  0  0
  1  7  4  0
  1 22  4  0
  2 17  4  0
  2 20  4  0
  2 28  4  0
  3  6  1  0
  3 19  1  0
  4 19  1  0
  4 26  1  0
  5 17  4  0
  5 18  4  0
  6 20  1  0
  6 26  1  0
  7 24  4  0
  8 15  4  0
  8 24  4  0
  9 14  4  0
  9 21  4  0
 10 12  4  0
 10 27  4  0
 11 12  4  0
 11 23  4  0
 13 23  4  0
 13 27  4  0
 14 20  4  0
 15 22  4  0
 16 18  4  0
 16 25  2  0
 16 28  4  0
 21 28  4  0
 24 27  1  0
M  END
$$$$

 Created by Python create_sdf_string function

 28 31  0  0  0  0  0  0  0  0999 V2000
   -1.0054  -13.0622   19.1198 C   0  0  0  0  0  0  0  0  0  0  0  0
    3.1478   -8.5360   28.5161 C   0  0  0  0  0  0  0  0  0  0  0  0
    0.5798   -7.1906   27.9330 C   0  0  0  0  0  0  0  0  0  0  0  0
    0.3978   -5.1561   26.6955 C   0  0  0  0  0  0  0  0  0  0  0  0
    2.3063  -10.0533   30.0125 C   0  0  0  0  0  0  0  0  0  0  0  0
    1.8591   -6.8254   27.4685 N   0  0  0  0  0  0  0  0  0  0  0  0
   -0.2167  -12.1055   18.5568 C   0  0  0  0  0  0  0  0  0  0  0  0
   -2.0661  -10.6994   18.1916 C   0  0  0  0  0  0  0  0  0  0  0  0
    5.2703   -7.5691   27.1123 C   0  0  0  0  0  0  0  0  0  0  0  0
    1.6204   -9.9887   17.2935 C   0  0  0  0  0  0  0  0  0  0  0  0
    1.8931   -7.9265   16.2047 C   0  0  0  0  0  0  0  0  0  0  0  0
    2.4396   -9.0801   16.7132 C   0  0  0  0  0  0  0  0  0  0  0  0
   -0.2575   -8.6234   16.8582 C   0  0  0  0  0  0  0  0  0  0  0  0
    4.0614   -7.0367   27.0106 N   0  0  0  0  0  0  0  0  0  0  0  0
   -2.9133  -11.6279   18.7578 C   0  0  0  0  0  0  0  0  0  0  0  0
    4.5688  -10.1291   29.5758 C   0  0  0  0  0  0  0  0  0  0  0  0
    2.1008   -9.0410   29.1852 N   0  0  0  0  0  0  0  0  0  0  0  0
    3.4829  -10.5697   30.2091 N   0  0  0  0  0  0  0  0  0  0  0  0
   -0.3363   -6.1172   27.5628 C   0  0  0  0  0  0  0  0  0  0  0  0
    3.0331   -7.4400   27.6362 C   0  0  0  0  0  0  0  0  0  0  0  0
    5.4553   -8.5933   27.9644 C   0  0  0  0  0  0  0  0  0  0  0  0
   -2.3870  -12.8440   19.2512 C   0  0  0  0  0  0  0  0  0  0  0  0
    0.5331   -7.6964   16.2751 C   0  0  0  0  0  0  0  0  0  0  0  0
   -0.6740  -10.8737   18.0482 C   0  0  0  0  0  0  0  0  0  0  0  0
    5.6751  -10.5870   29.7637 O   0  0  0  0  0  0  0  0  0  0  0  0
    1.7612   -5.6483   26.7172 C   0  0  0  0  0  0  0  0  0  0  0  0
    0.2221   -9.8326   17.4055 C   0  0  0  0  0  0  0  0  0  0  0  0
    4.3850   -9.0730   28.6745 C   0  0  0  0  0  0  0  0  0  0  0  0
  1  7  4  0
  1 22  4  0
  2 17  4  0
  2 20  4  0
  2 28  4  0
  3  6  1  0
  3 19  1  0
  4 19  1  0
  4 26  1  0
  5 17  4  0
  5 18  4  0
  6 20  1  0
  6 26  1  0
  7 24  4  0
  8 15  4  0
  8 24  4  0
  9 14  4  0
  9 21  4  0
 10 12  4  0
 10 27  4  0
 11 12  4  0
 11 23  4  0
 13 23  4  0
 13 27  4  0
 14 20  4  0
 15 22  4  0
 16 18  4  0
 16 25  2  0
 16 28  4  0
 21 28  4  0
 24 27  1  0
M  END
$$$$

 Created by Python create_sdf_string function

 28 31  0  0  0  0  0  0  0  0999 V2000
   -1.0054  -13.0622   19.1198 C   0  0  0  0  0  0  0  0  0  0  0  0
    3.1478   -8.5360   28.5161 C   0  0  0  0  0  0  0  0  0  0  0  0
    0.5798   -7.1906   27.9330 C   0  0  0  0  0  0  0  0  0  0  0  0
    0.3978   -5.1561   26.6955 C   0  0  0  0  0  0  0  0  0  0  0  0
    2.3063  -10.0533   30.0125 C   0  0  0  0  0  0  0  0  0  0  0  0
    1.8591   -6.8254   27.4685 N   0  0  0  0  0  0  0  0  0  0  0  0
   -0.2167  -12.1055   18.5568 C   0  0  0  0  0  0  0  0  0  0  0  0
   -2.0661  -10.6994   18.1916 C   0  0  0  0  0  0  0  0  0  0  0  0
    5.2703   -7.5691   27.1123 C   0  0  0  0  0  0  0  0  0  0  0  0
    1.6204   -9.9887   17.2935 C   0  0  0  0  0  0  0  0  0  0  0  0
    1.8931   -7.9265   16.2047 C   0  0  0  0  0  0  0  0  0  0  0  0
    2.4396   -9.0801   16.7132 C   0  0  0  0  0  0  0  0  0  0  0  0
   -0.2575   -8.6234   16.8582 C   0  0  0  0  0  0  0  0  0  0  0  0
    4.0614   -7.0367   27.0106 N   0  0  0  0  0  0  0  0  0  0  0  0
   -2.9133  -11.6279   18.7578 C   0  0  0  0  0  0  0  0  0  0  0  0
    4.5688  -10.1291   29.5758 C   0  0  0  0  0  0  0  0  0  0  0  0
    2.1008   -9.0410   29.1852 N   0  0  0  0  0  0  0  0  0  0  0  0
    3.4829  -10.5697   30.2091 N   0  0  0  0  0  0  0  0  0  0  0  0
   -0.3363   -6.1172   27.5628 C   0  0  0  0  0  0  0  0  0  0  0  0
    3.0331   -7.4400   27.6362 C   0  0  0  0  0  0  0  0  0  0  0  0
    5.4553   -8.5933   27.9644 C   0  0  0  0  0  0  0  0  0  0  0  0
   -2.3870  -12.8440   19.2512 C   0  0  0  0  0  0  0  0  0  0  0  0
    0.5331   -7.6964   16.2751 C   0  0  0  0  0  0  0  0  0  0  0  0
   -0.6740  -10.8737   18.0482 C   0  0  0  0  0  0  0  0  0  0  0  0
    5.6751  -10.5870   29.7637 O   0  0  0  0  0  0  0  0  0  0  0  0
    1.7612   -5.6483   26.7172 C   0  0  0  0  0  0  0  0  0  0  0  0
    0.2221   -9.8326   17.4055 C   0  0  0  0  0  0  0  0  0  0  0  0
    4.3850   -9.0730   28.6745 C   0  0  0  0  0  0  0  0  0  0  0  0
  1  7  4  0
  1 22  4  0
  2 17  4  0
  2 20  4  0
  2 28  4  0
  3  6  1  0
  3 19  1  0
  4 19  1  0
  4 26  1  0
  5 17  4  0
  5 18  4  0
  6 20  1  0
  6 26  1  0
  7 24  4  0
  8 15  4  0
  8 24  4  0
  9 14  4  0
  9 21  4  0
 10 12  4  0
 10 27  4  0
 11 12  4  0
 11 23  4  0
 13 23  4  0
 13 27  4  0
 14 20  4  0
 15 22  4  0
 16 18  4  0
 16 25  2  0
 16 28  4  0
 21 28  4  0
 24 27  1  0
M  END
$$$$

 Created by Python create_sdf_string function

 28 31  0  0  0  0  0  0  0  0999 V2000
   -1.0054  -13.0622   19.1198 C   0  0  0  0  0  0  0  0  0  0  0  0
    3.1478   -8.5360   28.5161 C   0  0  0  0  0  0  0  0  0  0  0  0
    0.5798   -7.1906   27.9330 C   0  0  0  0  0  0  0  0  0  0  0  0
    0.3978   -5.1561   26.6955 C   0  0  0  0  0  0  0  0  0  0  0  0
    2.3063  -10.0533   30.0125 C   0  0  0  0  0  0  0  0  0  0  0  0
    1.8591   -6.8254   27.4685 N   0  0  0  0  0  0  0  0  0  0  0  0
   -0.2167  -12.1055   18.5568 C   0  0  0  0  0  0  0  0  0  0  0  0
   -2.0661  -10.6994   18.1916 C   0  0  0  0  0  0  0  0  0  0  0  0
    5.2703   -7.5691   27.1123 C   0  0  0  0  0  0  0  0  0  0  0  0
    1.6204   -9.9887   17.2935 C   0  0  0  0  0  0  0  0  0  0  0  0
    1.8931   -7.9265   16.2047 C   0  0  0  0  0  0  0  0  0  0  0  0
    2.4396   -9.0801   16.7132 C   0  0  0  0  0  0  0  0  0  0  0  0
   -0.2575   -8.6234   16.8582 C   0  0  0  0  0  0  0  0  0  0  0  0
    4.0614   -7.0367   27.0106 N   0  0  0  0  0  0  0  0  0  0  0  0
   -2.9133  -11.6279   18.7578 C   0  0  0  0  0  0  0  0  0  0  0  0
    4.5688  -10.1291   29.5758 C   0  0  0  0  0  0  0  0  0  0  0  0
    2.1008   -9.0410   29.1852 N   0  0  0  0  0  0  0  0  0  0  0  0
    3.4829  -10.5697   30.2091 N   0  0  0  0  0  0  0  0  0  0  0  0
   -0.3363   -6.1172   27.5628 C   0  0  0  0  0  0  0  0  0  0  0  0
    3.0331   -7.4400   27.6362 C   0  0  0  0  0  0  0  0  0  0  0  0
    5.4553   -8.5933   27.9644 C   0  0  0  0  0  0  0  0  0  0  0  0
   -2.3870  -12.8440   19.2512 C   0  0  0  0  0  0  0  0  0  0  0  0
    0.5331   -7.6964   16.2751 C   0  0  0  0  0  0  0  0  0  0  0  0
   -0.6740  -10.8737   18.0482 C   0  0  0  0  0  0  0  0  0  0  0  0
    5.6751  -10.5870   29.7637 O   0  0  0  0  0  0  0  0  0  0  0  0
    1.7612   -5.6483   26.7172 C   0  0  0  0  0  0  0  0  0  0  0  0
    0.2221   -9.8326   17.4055 C   0  0  0  0  0  0  0  0  0  0  0  0
    4.3850   -9.0730   28.6745 C   0  0  0  0  0  0  0  0  0  0  0  0
  1  7  4  0
  1 22  4  0
  2 17  4  0
  2 20  4  0
  2 28  4  0
  3  6  1  0
  3 19  1  0
  4 19  1  0
  4 26  1  0
  5 17  4  0
  5 18  4  0
  6 20  1  0
  6 26  1  0
  7 24  4  0
  8 15  4  0
  8 24  4  0
  9 14  4  0
  9 21  4  0
 10 12  4  0
 10 27  4  0
 11 12  4  0
 11 23  4  0
 13 23  4  0
 13 27  4  0
 14 20  4  0
 15 22  4  0
 16 18  4  0
 16 25  2  0
 16 28  4  0
 21 28  4  0
 24 27  1  0
M  END
$$$$

 Created by Python create_sdf_string function

 28 31  0  0  0  0  0  0  0  0999 V2000
   -1.0054  -13.0622   19.1198 C   0  0  0  0  0  0  0  0  0  0  0  0
    3.1478   -8.5360   28.5161 C   0  0  0  0  0  0  0  0  0  0  0  0
    0.5798   -7.1906   27.9330 C   0  0  0  0  0  0  0  0  0  0  0  0
    0.3978   -5.1561   26.6955 C   0  0  0  0  0  0  0  0  0  0  0  0
    2.3063  -10.0533   30.0125 C   0  0  0  0  0  0  0  0  0  0  0  0
    1.8591   -6.8254   27.4685 N   0  0  0  0  0  0  0  0  0  0  0  0
   -0.2167  -12.1055   18.5568 C   0  0  0  0  0  0  0  0  0  0  0  0
   -2.0661  -10.6994   18.1916 C   0  0  0  0  0  0  0  0  0  0  0  0
    5.2703   -7.5691   27.1123 C   0  0  0  0  0  0  0  0  0  0  0  0
    1.6204   -9.9887   17.2935 C   0  0  0  0  0  0  0  0  0  0  0  0
    1.8931   -7.9265   16.2047 C   0  0  0  0  0  0  0  0  0  0  0  0
    2.4396   -9.0801   16.7132 C   0  0  0  0  0  0  0  0  0  0  0  0
   -0.2575   -8.6234   16.8582 C   0  0  0  0  0  0  0  0  0  0  0  0
    4.0614   -7.0367   27.0106 N   0  0  0  0  0  0  0  0  0  0  0  0
   -2.9133  -11.6279   18.7578 C   0  0  0  0  0  0  0  0  0  0  0  0
    4.5688  -10.1291   29.5758 C   0  0  0  0  0  0  0  0  0  0  0  0
    2.1008   -9.0410   29.1852 N   0  0  0  0  0  0  0  0  0  0  0  0
    3.4829  -10.5697   30.2091 N   0  0  0  0  0  0  0  0  0  0  0  0
   -0.3363   -6.1172   27.5628 C   0  0  0  0  0  0  0  0  0  0  0  0
    3.0331   -7.4400   27.6362 C   0  0  0  0  0  0  0  0  0  0  0  0
    5.4553   -8.5933   27.9644 C   0  0  0  0  0  0  0  0  0  0  0  0
   -2.3870  -12.8440   19.2512 C   0  0  0  0  0  0  0  0  0  0  0  0
    0.5331   -7.6964   16.2751 C   0  0  0  0  0  0  0  0  0  0  0  0
   -0.6740  -10.8737   18.0482 C   0  0  0  0  0  0  0  0  0  0  0  0
    5.6751  -10.5870   29.7637 O   0  0  0  0  0  0  0  0  0  0  0  0
    1.7612   -5.6483   26.7172 C   0  0  0  0  0  0  0  0  0  0  0  0
    0.2221   -9.8326   17.4055 C   0  0  0  0  0  0  0  0  0  0  0  0
    4.3850   -9.0730   28.6745 C   0  0  0  0  0  0  0  0  0  0  0  0
  1  7  4  0
  1 22  4  0
  2 17  4  0
  2 20  4  0
  2 28  4  0
  3  6  1  0
  3 19  1  0
  4 19  1  0
  4 26  1  0
  5 17  4  0
  5 18  4  0
  6 20  1  0
  6 26  1  0
  7 24  4  0
  8 15  4  0
  8 24  4  0
  9 14  4  0
  9 21  4  0
 10 12  4  0
 10 27  4  0
 11 12  4  0
 11 23  4  0
 13 23  4  0
 13 27  4  0
 14 20  4  0
 15 22  4  0
 16 18  4  0
 16 25  2  0
 16 28  4  0
 21 28  4  0
 24 27  1  0
M  END
$$$$

 Created by Python create_sdf_string function

 28 31  0  0  0  0  0  0  0  0999 V2000
   -1.0054  -13.0622   19.1198 C   0  0  0  0  0  0  0  0  0  0  0  0
    3.1478   -8.5360   28.5161 C   0  0  0  0  0  0  0  0  0  0  0  0
    0.5798   -7.1906   27.9330 C   0  0  0  0  0  0  0  0  0  0  0  0
    0.3978   -5.1561   26.6955 C   0  0  0  0  0  0  0  0  0  0  0  0
    2.3063  -10.0533   30.0125 C   0  0  0  0  0  0  0  0  0  0  0  0
    1.8591   -6.8254   27.4685 N   0  0  0  0  0  0  0  0  0  0  0  0
   -0.2167  -12.1055   18.5568 C   0  0  0  0  0  0  0  0  0  0  0  0
   -2.0661  -10.6994   18.1916 C   0  0  0  0  0  0  0  0  0  0  0  0
    5.2703   -7.5691   27.1123 C   0  0  0  0  0  0  0  0  0  0  0  0
    1.6204   -9.9887   17.2935 C   0  0  0  0  0  0  0  0  0  0  0  0
    1.8931   -7.9265   16.2047 C   0  0  0  0  0  0  0  0  0  0  0  0
    2.4396   -9.0801   16.7132 C   0  0  0  0  0  0  0  0  0  0  0  0
   -0.2575   -8.6234   16.8582 C   0  0  0  0  0  0  0  0  0  0  0  0
    4.0614   -7.0367   27.0106 N   0  0  0  0  0  0  0  0  0  0  0  0
   -2.9133  -11.6279   18.7578 C   0  0  0  0  0  0  0  0  0  0  0  0
    4.5688  -10.1291   29.5758 C   0  0  0  0  0  0  0  0  0  0  0  0
    2.1008   -9.0410   29.1852 N   0  0  0  0  0  0  0  0  0  0  0  0
    3.4829  -10.5697   30.2091 N   0  0  0  0  0  0  0  0  0  0  0  0
   -0.3363   -6.1172   27.5628 C   0  0  0  0  0  0  0  0  0  0  0  0
    3.0331   -7.4400   27.6362 C   0  0  0  0  0  0  0  0  0  0  0  0
    5.4553   -8.5933   27.9644 C   0  0  0  0  0  0  0  0  0  0  0  0
   -2.3870  -12.8440   19.2512 C   0  0  0  0  0  0  0  0  0  0  0  0
    0.5331   -7.6964   16.2751 C   0  0  0  0  0  0  0  0  0  0  0  0
   -0.6740  -10.8737   18.0482 C   0  0  0  0  0  0  0  0  0  0  0  0
    5.6751  -10.5870   29.7637 O   0  0  0  0  0  0  0  0  0  0  0  0
    1.7612   -5.6483   26.7172 C   0  0  0  0  0  0  0  0  0  0  0  0
    0.2221   -9.8326   17.4055 C   0  0  0  0  0  0  0  0  0  0  0  0
    4.3850   -9.0730   28.6745 C   0  0  0  0  0  0  0  0  0  0  0  0
  1  7  4  0
  1 22  4  0
  2 17  4  0
  2 20  4  0
  2 28  4  0
  3  6  1  0
  3 19  1  0
  4 19  1  0
  4 26  1  0
  5 17  4  0
  5 18  4  0
  6 20  1  0
  6 26  1  0
  7 24  4  0
  8 15  4  0
  8 24  4  0
  9 14  4  0
  9 21  4  0
 10 12  4  0
 10 27  4  0
 11 12  4  0
 11 23  4  0
 13 23  4  0
 13 27  4  0
 14 20  4  0
 15 22  4  0
 16 18  4  0
 16 25  2  0
 16 28  4  0
 21 28  4  0
 24 27  1  0
M  END
$$$$

 Created by Python create_sdf_string function

 28 31  0  0  0  0  0  0  0  0999 V2000
   -1.0054  -13.0622   19.1198 C   0  0  0  0  0  0  0  0  0  0  0  0
    3.1478   -8.5360   28.5161 C   0  0  0  0  0  0  0  0  0  0  0  0
    0.5798   -7.1906   27.9330 C   0  0  0  0  0  0  0  0  0  0  0  0
    0.3978   -5.1561   26.6955 C   0  0  0  0  0  0  0  0  0  0  0  0
    2.3063  -10.0533   30.0125 C   0  0  0  0  0  0  0  0  0  0  0  0
    1.8591   -6.8254   27.4685 N   0  0  0  0  0  0  0  0  0  0  0  0
   -0.2167  -12.1055   18.5568 C   0  0  0  0  0  0  0  0  0  0  0  0
   -2.0661  -10.6994   18.1916 C   0  0  0  0  0  0  0  0  0  0  0  0
    5.2703   -7.5691   27.1123 C   0  0  0  0  0  0  0  0  0  0  0  0
    1.6204   -9.9887   17.2935 C   0  0  0  0  0  0  0  0  0  0  0  0
    1.8931   -7.9265   16.2047 C   0  0  0  0  0  0  0  0  0  0  0  0
    2.4396   -9.0801   16.7132 C   0  0  0  0  0  0  0  0  0  0  0  0
   -0.2575   -8.6234   16.8582 C   0  0  0  0  0  0  0  0  0  0  0  0
    4.0614   -7.0367   27.0106 N   0  0  0  0  0  0  0  0  0  0  0  0
   -2.9133  -11.6279   18.7578 C   0  0  0  0  0  0  0  0  0  0  0  0
    4.5688  -10.1291   29.5758 C   0  0  0  0  0  0  0  0  0  0  0  0
    2.1008   -9.0410   29.1852 N   0  0  0  0  0  0  0  0  0  0  0  0
    3.4829  -10.5697   30.2091 N   0  0  0  0  0  0  0  0  0  0  0  0
   -0.3363   -6.1172   27.5628 C   0  0  0  0  0  0  0  0  0  0  0  0
    3.0331   -7.4400   27.6362 C   0  0  0  0  0  0  0  0  0  0  0  0
    5.4553   -8.5933   27.9644 C   0  0  0  0  0  0  0  0  0  0  0  0
   -2.3870  -12.8440   19.2512 C   0  0  0  0  0  0  0  0  0  0  0  0
    0.5331   -7.6964   16.2751 C   0  0  0  0  0  0  0  0  0  0  0  0
   -0.6740  -10.8737   18.0482 C   0  0  0  0  0  0  0  0  0  0  0  0
    5.6751  -10.5870   29.7637 O   0  0  0  0  0  0  0  0  0  0  0  0
    1.7612   -5.6483   26.7172 C   0  0  0  0  0  0  0  0  0  0  0  0
    0.2221   -9.8326   17.4055 C   0  0  0  0  0  0  0  0  0  0  0  0
    4.3850   -9.0730   28.6745 C   0  0  0  0  0  0  0  0  0  0  0  0
  1  7  4  0
  1 22  4  0
  2 17  4  0
  2 20  4  0
  2 28  4  0
  3  6  1  0
  3 19  1  0
  4 19  1  0
  4 26  1  0
  5 17  4  0
  5 18  4  0
  6 20  1  0
  6 26  1  0
  7 24  4  0
  8 15  4  0
  8 24  4  0
  9 14  4  0
  9 21  4  0
 10 12  4  0
 10 27  4  0
 11 12  4  0
 11 23  4  0
 13 23  4  0
 13 27  4  0
 14 20  4  0
 15 22  4  0
 16 18  4  0
 16 25  2  0
 16 28  4  0
 21 28  4  0
 24 27  1  0
M  END
$$$$

 Created by Python create_sdf_string function

 28 31  0  0  0  0  0  0  0  0999 V2000
   -1.0054  -13.0622   19.1198 C   0  0  0  0  0  0  0  0  0  0  0  0
    3.1478   -8.5360   28.5161 C   0  0  0  0  0  0  0  0  0  0  0  0
    0.5798   -7.1906   27.9330 C   0  0  0  0  0  0  0  0  0  0  0  0
    0.3978   -5.1561   26.6955 C   0  0  0  0  0  0  0  0  0  0  0  0
    2.3063  -10.0533   30.0125 C   0  0  0  0  0  0  0  0  0  0  0  0
    1.8591   -6.8254   27.4685 N   0  0  0  0  0  0  0  0  0  0  0  0
   -0.2167  -12.1055   18.5568 C   0  0  0  0  0  0  0  0  0  0  0  0
   -2.0661  -10.6994   18.1916 C   0  0  0  0  0  0  0  0  0  0  0  0
    5.2703   -7.5691   27.1123 C   0  0  0  0  0  0  0  0  0  0  0  0
    1.6204   -9.9887   17.2935 C   0  0  0  0  0  0  0  0  0  0  0  0
    1.8931   -7.9265   16.2047 C   0  0  0  0  0  0  0  0  0  0  0  0
    2.4396   -9.0801   16.7132 C   0  0  0  0  0  0  0  0  0  0  0  0
   -0.2575   -8.6234   16.8582 C   0  0  0  0  0  0  0  0  0  0  0  0
    4.0614   -7.0367   27.0106 N   0  0  0  0  0  0  0  0  0  0  0  0
   -2.9133  -11.6279   18.7578 C   0  0  0  0  0  0  0  0  0  0  0  0
    4.5688  -10.1291   29.5758 C   0  0  0  0  0  0  0  0  0  0  0  0
    2.1008   -9.0410   29.1852 N   0  0  0  0  0  0  0  0  0  0  0  0
    3.4829  -10.5697   30.2091 N   0  0  0  0  0  0  0  0  0  0  0  0
   -0.3363   -6.1172   27.5628 C   0  0  0  0  0  0  0  0  0  0  0  0
    3.0331   -7.4400   27.6362 C   0  0  0  0  0  0  0  0  0  0  0  0
    5.4553   -8.5933   27.9644 C   0  0  0  0  0  0  0  0  0  0  0  0
   -2.3870  -12.8440   19.2512 C   0  0  0  0  0  0  0  0  0  0  0  0
    0.5331   -7.6964   16.2751 C   0  0  0  0  0  0  0  0  0  0  0  0
   -0.6740  -10.8737   18.0482 C   0  0  0  0  0  0  0  0  0  0  0  0
    5.6751  -10.5870   29.7637 O   0  0  0  0  0  0  0  0  0  0  0  0
    1.7612   -5.6483   26.7172 C   0  0  0  0  0  0  0  0  0  0  0  0
    0.2221   -9.8326   17.4055 C   0  0  0  0  0  0  0  0  0  0  0  0
    4.3850   -9.0730   28.6745 C   0  0  0  0  0  0  0  0  0  0  0  0
  1  7  4  0
  1 22  4  0
  2 17  4  0
  2 20  4  0
  2 28  4  0
  3  6  1  0
  3 19  1  0
  4 19  1  0
  4 26  1  0
  5 17  4  0
  5 18  4  0
  6 20  1  0
  6 26  1  0
  7 24  4  0
  8 15  4  0
  8 24  4  0
  9 14  4  0
  9 21  4  0
 10 12  4  0
 10 27  4  0
 11 12  4  0
 11 23  4  0
 13 23  4  0
 13 27  4  0
 14 20  4  0
 15 22  4  0
 16 18  4  0
 16 25  2  0
 16 28  4  0
 21 28  4  0
 24 27  1  0
M  END
$$$$

 Created by Python create_sdf_string function

 28 31  0  0  0  0  0  0  0  0999 V2000
   -1.0054  -13.0622   19.1198 C   0  0  0  0  0  0  0  0  0  0  0  0
    3.1478   -8.5360   28.5161 C   0  0  0  0  0  0  0  0  0  0  0  0
    0.5798   -7.1906   27.9330 C   0  0  0  0  0  0  0  0  0  0  0  0
    0.3978   -5.1561   26.6955 C   0  0  0  0  0  0  0  0  0  0  0  0
    2.3063  -10.0533   30.0125 C   0  0  0  0  0  0  0  0  0  0  0  0
    1.8591   -6.8254   27.4685 N   0  0  0  0  0  0  0  0  0  0  0  0
   -0.2167  -12.1055   18.5568 C   0  0  0  0  0  0  0  0  0  0  0  0
   -2.0661  -10.6994   18.1916 C   0  0  0  0  0  0  0  0  0  0  0  0
    5.2703   -7.5691   27.1123 C   0  0  0  0  0  0  0  0  0  0  0  0
    1.6204   -9.9887   17.2935 C   0  0  0  0  0  0  0  0  0  0  0  0
    1.8931   -7.9265   16.2047 C   0  0  0  0  0  0  0  0  0  0  0  0
    2.4396   -9.0801   16.7132 C   0  0  0  0  0  0  0  0  0  0  0  0
   -0.2575   -8.6234   16.8582 C   0  0  0  0  0  0  0  0  0  0  0  0
    4.0614   -7.0367   27.0106 N   0  0  0  0  0  0  0  0  0  0  0  0
   -2.9133  -11.6279   18.7578 C   0  0  0  0  0  0  0  0  0  0  0  0
    4.5688  -10.1291   29.5758 C   0  0  0  0  0  0  0  0  0  0  0  0
    2.1008   -9.0410   29.1852 N   0  0  0  0  0  0  0  0  0  0  0  0
    3.4829  -10.5697   30.2091 N   0  0  0  0  0  0  0  0  0  0  0  0
   -0.3363   -6.1172   27.5628 C   0  0  0  0  0  0  0  0  0  0  0  0
    3.0331   -7.4400   27.6362 C   0  0  0  0  0  0  0  0  0  0  0  0
    5.4553   -8.5933   27.9644 C   0  0  0  0  0  0  0  0  0  0  0  0
   -2.3870  -12.8440   19.2512 C   0  0  0  0  0  0  0  0  0  0  0  0
    0.5331   -7.6964   16.2751 C   0  0  0  0  0  0  0  0  0  0  0  0
   -0.6740  -10.8737   18.0482 C   0  0  0  0  0  0  0  0  0  0  0  0
    5.6751  -10.5870   29.7637 O   0  0  0  0  0  0  0  0  0  0  0  0
    1.7612   -5.6483   26.7172 C   0  0  0  0  0  0  0  0  0  0  0  0
    0.2221   -9.8326   17.4055 C   0  0  0  0  0  0  0  0  0  0  0  0
    4.3850   -9.0730   28.6745 C   0  0  0  0  0  0  0  0  0  0  0  0
  1  7  4  0
  1 22  4  0
  2 17  4  0
  2 20  4  0
  2 28  4  0
  3  6  1  0
  3 19  1  0
  4 19  1  0
  4 26  1  0
  5 17  4  0
  5 18  4  0
  6 20  1  0
  6 26  1  0
  7 24  4  0
  8 15  4  0
  8 24  4  0
  9 14  4  0
  9 21  4  0
 10 12  4  0
 10 27  4  0
 11 12  4  0
 11 23  4  0
 13 23  4  0
 13 27  4  0
 14 20  4  0
 15 22  4  0
 16 18  4  0
 16 25  2  0
 16 28  4  0
 21 28  4  0
 24 27  1  0
M  END
$$$$

 Created by Python create_sdf_string function

 28 31  0  0  0  0  0  0  0  0999 V2000
   -1.0054  -13.0622   19.1198 C   0  0  0  0  0  0  0  0  0  0  0  0
    3.1478   -8.5360   28.5161 C   0  0  0  0  0  0  0  0  0  0  0  0
    0.5798   -7.1906   27.9330 C   0  0  0  0  0  0  0  0  0  0  0  0
    0.3978   -5.1561   26.6955 C   0  0  0  0  0  0  0  0  0  0  0  0
    2.3063  -10.0533   30.0125 C   0  0  0  0  0  0  0  0  0  0  0  0
    1.8591   -6.8254   27.4685 N   0  0  0  0  0  0  0  0  0  0  0  0
   -0.2167  -12.1055   18.5568 C   0  0  0  0  0  0  0  0  0  0  0  0
   -2.0661  -10.6994   18.1916 C   0  0  0  0  0  0  0  0  0  0  0  0
    5.2703   -7.5691   27.1123 C   0  0  0  0  0  0  0  0  0  0  0  0
    1.6204   -9.9887   17.2935 C   0  0  0  0  0  0  0  0  0  0  0  0
    1.8931   -7.9265   16.2047 C   0  0  0  0  0  0  0  0  0  0  0  0
    2.4396   -9.0801   16.7132 C   0  0  0  0  0  0  0  0  0  0  0  0
   -0.2575   -8.6234   16.8582 C   0  0  0  0  0  0  0  0  0  0  0  0
    4.0614   -7.0367   27.0106 N   0  0  0  0  0  0  0  0  0  0  0  0
   -2.9133  -11.6279   18.7578 C   0  0  0  0  0  0  0  0  0  0  0  0
    4.5688  -10.1291   29.5758 C   0  0  0  0  0  0  0  0  0  0  0  0
    2.1008   -9.0410   29.1852 N   0  0  0  0  0  0  0  0  0  0  0  0
    3.4829  -10.5697   30.2091 N   0  0  0  0  0  0  0  0  0  0  0  0
   -0.3363   -6.1172   27.5628 C   0  0  0  0  0  0  0  0  0  0  0  0
    3.0331   -7.4400   27.6362 C   0  0  0  0  0  0  0  0  0  0  0  0
    5.4553   -8.5933   27.9644 C   0  0  0  0  0  0  0  0  0  0  0  0
   -2.3870  -12.8440   19.2512 C   0  0  0  0  0  0  0  0  0  0  0  0
    0.5331   -7.6964   16.2751 C   0  0  0  0  0  0  0  0  0  0  0  0
   -0.6740  -10.8737   18.0482 C   0  0  0  0  0  0  0  0  0  0  0  0
    5.6751  -10.5870   29.7637 O   0  0  0  0  0  0  0  0  0  0  0  0
    1.7612   -5.6483   26.7172 C   0  0  0  0  0  0  0  0  0  0  0  0
    0.2221   -9.8326   17.4055 C   0  0  0  0  0  0  0  0  0  0  0  0
    4.3850   -9.0730   28.6745 C   0  0  0  0  0  0  0  0  0  0  0  0
  1  7  4  0
  1 22  4  0
  2 17  4  0
  2 20  4  0
  2 28  4  0
  3  6  1  0
  3 19  1  0
  4 19  1  0
  4 26  1  0
  5 17  4  0
  5 18  4  0
  6 20  1  0
  6 26  1  0
  7 24  4  0
  8 15  4  0
  8 24  4  0
  9 14  4  0
  9 21  4  0
 10 12  4  0
 10 27  4  0
 11 12  4  0
 11 23  4  0
 13 23  4  0
 13 27  4  0
 14 20  4  0
 15 22  4  0
 16 18  4  0
 16 25  2  0
 16 28  4  0
 21 28  4  0
 24 27  1  0
M  END
$$$$

 Created by Python create_sdf_string function

 28 31  0  0  0  0  0  0  0  0999 V2000
   -1.0054  -13.0622   19.1198 C   0  0  0  0  0  0  0  0  0  0  0  0
    3.1478   -8.5360   28.5161 C   0  0  0  0  0  0  0  0  0  0  0  0
    0.5798   -7.1906   27.9330 C   0  0  0  0  0  0  0  0  0  0  0  0
    0.3978   -5.1561   26.6955 C   0  0  0  0  0  0  0  0  0  0  0  0
    2.3063  -10.0533   30.0125 C   0  0  0  0  0  0  0  0  0  0  0  0
    1.8591   -6.8254   27.4685 N   0  0  0  0  0  0  0  0  0  0  0  0
   -0.2167  -12.1055   18.5568 C   0  0  0  0  0  0  0  0  0  0  0  0
   -2.0661  -10.6994   18.1916 C   0  0  0  0  0  0  0  0  0  0  0  0
    5.2703   -7.5691   27.1123 C   0  0  0  0  0  0  0  0  0  0  0  0
    1.6204   -9.9887   17.2935 C   0  0  0  0  0  0  0  0  0  0  0  0
    1.8931   -7.9265   16.2047 C   0  0  0  0  0  0  0  0  0  0  0  0
    2.4396   -9.0801   16.7132 C   0  0  0  0  0  0  0  0  0  0  0  0
   -0.2575   -8.6234   16.8582 C   0  0  0  0  0  0  0  0  0  0  0  0
    4.0614   -7.0367   27.0106 N   0  0  0  0  0  0  0  0  0  0  0  0
   -2.9133  -11.6279   18.7578 C   0  0  0  0  0  0  0  0  0  0  0  0
    4.5688  -10.1291   29.5758 C   0  0  0  0  0  0  0  0  0  0  0  0
    2.1008   -9.0410   29.1852 N   0  0  0  0  0  0  0  0  0  0  0  0
    3.4829  -10.5697   30.2091 N   0  0  0  0  0  0  0  0  0  0  0  0
   -0.3363   -6.1172   27.5628 C   0  0  0  0  0  0  0  0  0  0  0  0
    3.0331   -7.4400   27.6362 C   0  0  0  0  0  0  0  0  0  0  0  0
    5.4553   -8.5933   27.9644 C   0  0  0  0  0  0  0  0  0  0  0  0
   -2.3870  -12.8440   19.2512 C   0  0  0  0  0  0  0  0  0  0  0  0
    0.5331   -7.6964   16.2751 C   0  0  0  0  0  0  0  0  0  0  0  0
   -0.6740  -10.8737   18.0482 C   0  0  0  0  0  0  0  0  0  0  0  0
    5.6751  -10.5870   29.7637 O   0  0  0  0  0  0  0  0  0  0  0  0
    1.7612   -5.6483   26.7172 C   0  0  0  0  0  0  0  0  0  0  0  0
    0.2221   -9.8326   17.4055 C   0  0  0  0  0  0  0  0  0  0  0  0
    4.3850   -9.0730   28.6745 C   0  0  0  0  0  0  0  0  0  0  0  0
  1  7  4  0
  1 22  4  0
  2 17  4  0
  2 20  4  0
  2 28  4  0
  3  6  1  0
  3 19  1  0
  4 19  1  0
  4 26  1  0
  5 17  4  0
  5 18  4  0
  6 20  1  0
  6 26  1  0
  7 24  4  0
  8 15  4  0
  8 24  4  0
  9 14  4  0
  9 21  4  0
 10 12  4  0
 10 27  4  0
 11 12  4  0
 11 23  4  0
 13 23  4  0
 13 27  4  0
 14 20  4  0
 15 22  4  0
 16 18  4  0
 16 25  2  0
 16 28  4  0
 21 28  4  0
 24 27  1  0
M  END
$$$$

 Created by Python create_sdf_string function

 28 31  0  0  0  0  0  0  0  0999 V2000
   -1.0054  -13.0622   19.1198 C   0  0  0  0  0  0  0  0  0  0  0  0
    3.1478   -8.5360   28.5161 C   0  0  0  0  0  0  0  0  0  0  0  0
    0.5798   -7.1906   27.9330 C   0  0  0  0  0  0  0  0  0  0  0  0
    0.3978   -5.1561   26.6955 C   0  0  0  0  0  0  0  0  0  0  0  0
    2.3063  -10.0533   30.0125 C   0  0  0  0  0  0  0  0  0  0  0  0
    1.8591   -6.8254   27.4685 N   0  0  0  0  0  0  0  0  0  0  0  0
   -0.2167  -12.1055   18.5568 C   0  0  0  0  0  0  0  0  0  0  0  0
   -2.0661  -10.6994   18.1916 C   0  0  0  0  0  0  0  0  0  0  0  0
    5.2703   -7.5691   27.1123 C   0  0  0  0  0  0  0  0  0  0  0  0
    1.6204   -9.9887   17.2935 C   0  0  0  0  0  0  0  0  0  0  0  0
    1.8931   -7.9265   16.2047 C   0  0  0  0  0  0  0  0  0  0  0  0
    2.4396   -9.0801   16.7132 C   0  0  0  0  0  0  0  0  0  0  0  0
   -0.2575   -8.6234   16.8582 C   0  0  0  0  0  0  0  0  0  0  0  0
    4.0614   -7.0367   27.0106 N   0  0  0  0  0  0  0  0  0  0  0  0
   -2.9133  -11.6279   18.7578 C   0  0  0  0  0  0  0  0  0  0  0  0
    4.5688  -10.1291   29.5758 C   0  0  0  0  0  0  0  0  0  0  0  0
    2.1008   -9.0410   29.1852 N   0  0  0  0  0  0  0  0  0  0  0  0
    3.4829  -10.5697   30.2091 N   0  0  0  0  0  0  0  0  0  0  0  0
   -0.3363   -6.1172   27.5628 C   0  0  0  0  0  0  0  0  0  0  0  0
    3.0331   -7.4400   27.6362 C   0  0  0  0  0  0  0  0  0  0  0  0
    5.4553   -8.5933   27.9644 C   0  0  0  0  0  0  0  0  0  0  0  0
   -2.3870  -12.8440   19.2512 C   0  0  0  0  0  0  0  0  0  0  0  0
    0.5331   -7.6964   16.2751 C   0  0  0  0  0  0  0  0  0  0  0  0
   -0.6740  -10.8737   18.0482 C   0  0  0  0  0  0  0  0  0  0  0  0
    5.6751  -10.5870   29.7637 O   0  0  0  0  0  0  0  0  0  0  0  0
    1.7612   -5.6483   26.7172 C   0  0  0  0  0  0  0  0  0  0  0  0
    0.2221   -9.8326   17.4055 C   0  0  0  0  0  0  0  0  0  0  0  0
    4.3850   -9.0730   28.6745 C   0  0  0  0  0  0  0  0  0  0  0  0
  1  7  4  0
  1 22  4  0
  2 17  4  0
  2 20  4  0
  2 28  4  0
  3  6  1  0
  3 19  1  0
  4 19  1  0
  4 26  1  0
  5 17  4  0
  5 18  4  0
  6 20  1  0
  6 26  1  0
  7 24  4  0
  8 15  4  0
  8 24  4  0
  9 14  4  0
  9 21  4  0
 10 12  4  0
 10 27  4  0
 11 12  4  0
 11 23  4  0
 13 23  4  0
 13 27  4  0
 14 20  4  0
 15 22  4  0
 16 18  4  0
 16 25  2  0
 16 28  4  0
 21 28  4  0
 24 27  1  0
M  END
$$$$

 Created by Python create_sdf_string function

 28 31  0  0  0  0  0  0  0  0999 V2000
   -1.0054  -13.0622   19.1198 C   0  0  0  0  0  0  0  0  0  0  0  0
    3.1478   -8.5360   28.5161 C   0  0  0  0  0  0  0  0  0  0  0  0
    0.5798   -7.1906   27.9330 C   0  0  0  0  0  0  0  0  0  0  0  0
    0.3978   -5.1561   26.6955 C   0  0  0  0  0  0  0  0  0  0  0  0
    2.3063  -10.0533   30.0125 C   0  0  0  0  0  0  0  0  0  0  0  0
    1.8591   -6.8254   27.4685 N   0  0  0  0  0  0  0  0  0  0  0  0
   -0.2167  -12.1055   18.5568 C   0  0  0  0  0  0  0  0  0  0  0  0
   -2.0661  -10.6994   18.1916 C   0  0  0  0  0  0  0  0  0  0  0  0
    5.2703   -7.5691   27.1123 C   0  0  0  0  0  0  0  0  0  0  0  0
    1.6204   -9.9887   17.2935 C   0  0  0  0  0  0  0  0  0  0  0  0
    1.8931   -7.9265   16.2047 C   0  0  0  0  0  0  0  0  0  0  0  0
    2.4396   -9.0801   16.7132 C   0  0  0  0  0  0  0  0  0  0  0  0
   -0.2575   -8.6234   16.8582 C   0  0  0  0  0  0  0  0  0  0  0  0
    4.0614   -7.0367   27.0106 N   0  0  0  0  0  0  0  0  0  0  0  0
   -2.9133  -11.6279   18.7578 C   0  0  0  0  0  0  0  0  0  0  0  0
    4.5688  -10.1291   29.5758 C   0  0  0  0  0  0  0  0  0  0  0  0
    2.1008   -9.0410   29.1852 N   0  0  0  0  0  0  0  0  0  0  0  0
    3.4829  -10.5697   30.2091 N   0  0  0  0  0  0  0  0  0  0  0  0
   -0.3363   -6.1172   27.5628 C   0  0  0  0  0  0  0  0  0  0  0  0
    3.0331   -7.4400   27.6362 C   0  0  0  0  0  0  0  0  0  0  0  0
    5.4553   -8.5933   27.9644 C   0  0  0  0  0  0  0  0  0  0  0  0
   -2.3870  -12.8440   19.2512 C   0  0  0  0  0  0  0  0  0  0  0  0
    0.5331   -7.6964   16.2751 C   0  0  0  0  0  0  0  0  0  0  0  0
   -0.6740  -10.8737   18.0482 C   0  0  0  0  0  0  0  0  0  0  0  0
    5.6751  -10.5870   29.7637 O   0  0  0  0  0  0  0  0  0  0  0  0
    1.7612   -5.6483   26.7172 C   0  0  0  0  0  0  0  0  0  0  0  0
    0.2221   -9.8326   17.4055 C   0  0  0  0  0  0  0  0  0  0  0  0
    4.3850   -9.0730   28.6745 C   0  0  0  0  0  0  0  0  0  0  0  0
  1  7  4  0
  1 22  4  0
  2 17  4  0
  2 20  4  0
  2 28  4  0
  3  6  1  0
  3 19  1  0
  4 19  1  0
  4 26  1  0
  5 17  4  0
  5 18  4  0
  6 20  1  0
  6 26  1  0
  7 24  4  0
  8 15  4  0
  8 24  4  0
  9 14  4  0
  9 21  4  0
 10 12  4  0
 10 27  4  0
 11 12  4  0
 11 23  4  0
 13 23  4  0
 13 27  4  0
 14 20  4  0
 15 22  4  0
 16 18  4  0
 16 25  2  0
 16 28  4  0
 21 28  4  0
 24 27  1  0
M  END
$$$$

 Created by Python create_sdf_string function

 28 31  0  0  0  0  0  0  0  0999 V2000
   -1.0054  -13.0622   19.1198 C   0  0  0  0  0  0  0  0  0  0  0  0
    3.1478   -8.5360   28.5161 C   0  0  0  0  0  0  0  0  0  0  0  0
    0.5798   -7.1906   27.9330 C   0  0  0  0  0  0  0  0  0  0  0  0
    0.3978   -5.1561   26.6955 C   0  0  0  0  0  0  0  0  0  0  0  0
    2.3063  -10.0533   30.0125 C   0  0  0  0  0  0  0  0  0  0  0  0
    1.8591   -6.8254   27.4685 N   0  0  0  0  0  0  0  0  0  0  0  0
   -0.2167  -12.1055   18.5568 C   0  0  0  0  0  0  0  0  0  0  0  0
   -2.0661  -10.6994   18.1916 C   0  0  0  0  0  0  0  0  0  0  0  0
    5.2703   -7.5691   27.1123 C   0  0  0  0  0  0  0  0  0  0  0  0
    1.6204   -9.9887   17.2935 C   0  0  0  0  0  0  0  0  0  0  0  0
    1.8931   -7.9265   16.2047 C   0  0  0  0  0  0  0  0  0  0  0  0
    2.4396   -9.0801   16.7132 C   0  0  0  0  0  0  0  0  0  0  0  0
   -0.2575   -8.6234   16.8582 C   0  0  0  0  0  0  0  0  0  0  0  0
    4.0614   -7.0367   27.0106 N   0  0  0  0  0  0  0  0  0  0  0  0
   -2.9133  -11.6279   18.7578 C   0  0  0  0  0  0  0  0  0  0  0  0
    4.5688  -10.1291   29.5758 C   0  0  0  0  0  0  0  0  0  0  0  0
    2.1008   -9.0410   29.1852 N   0  0  0  0  0  0  0  0  0  0  0  0
    3.4829  -10.5697   30.2091 N   0  0  0  0  0  0  0  0  0  0  0  0
   -0.3363   -6.1172   27.5628 C   0  0  0  0  0  0  0  0  0  0  0  0
    3.0331   -7.4400   27.6362 C   0  0  0  0  0  0  0  0  0  0  0  0
    5.4553   -8.5933   27.9644 C   0  0  0  0  0  0  0  0  0  0  0  0
   -2.3870  -12.8440   19.2512 C   0  0  0  0  0  0  0  0  0  0  0  0
    0.5331   -7.6964   16.2751 C   0  0  0  0  0  0  0  0  0  0  0  0
   -0.6740  -10.8737   18.0482 C   0  0  0  0  0  0  0  0  0  0  0  0
    5.6751  -10.5870   29.7637 O   0  0  0  0  0  0  0  0  0  0  0  0
    1.7612   -5.6483   26.7172 C   0  0  0  0  0  0  0  0  0  0  0  0
    0.2221   -9.8326   17.4055 C   0  0  0  0  0  0  0  0  0  0  0  0
    4.3850   -9.0730   28.6745 C   0  0  0  0  0  0  0  0  0  0  0  0
  1  7  4  0
  1 22  4  0
  2 17  4  0
  2 20  4  0
  2 28  4  0
  3  6  1  0
  3 19  1  0
  4 19  1  0
  4 26  1  0
  5 17  4  0
  5 18  4  0
  6 20  1  0
  6 26  1  0
  7 24  4  0
  8 15  4  0
  8 24  4  0
  9 14  4  0
  9 21  4  0
 10 12  4  0
 10 27  4  0
 11 12  4  0
 11 23  4  0
 13 23  4  0
 13 27  4  0
 14 20  4  0
 15 22  4  0
 16 18  4  0
 16 25  2  0
 16 28  4  0
 21 28  4  0
 24 27  1  0
M  END
$$$$

 Created by Python create_sdf_string function

 28 31  0  0  0  0  0  0  0  0999 V2000
   -1.0054  -13.0622   19.1198 C   0  0  0  0  0  0  0  0  0  0  0  0
    3.1478   -8.5360   28.5161 C   0  0  0  0  0  0  0  0  0  0  0  0
    0.5798   -7.1906   27.9330 C   0  0  0  0  0  0  0  0  0  0  0  0
    0.3978   -5.1561   26.6955 C   0  0  0  0  0  0  0  0  0  0  0  0
    2.3063  -10.0533   30.0125 C   0  0  0  0  0  0  0  0  0  0  0  0
    1.8591   -6.8254   27.4685 N   0  0  0  0  0  0  0  0  0  0  0  0
   -0.2167  -12.1055   18.5568 C   0  0  0  0  0  0  0  0  0  0  0  0
   -2.0661  -10.6994   18.1916 C   0  0  0  0  0  0  0  0  0  0  0  0
    5.2703   -7.5691   27.1123 C   0  0  0  0  0  0  0  0  0  0  0  0
    1.6204   -9.9887   17.2935 C   0  0  0  0  0  0  0  0  0  0  0  0
    1.8931   -7.9265   16.2047 C   0  0  0  0  0  0  0  0  0  0  0  0
    2.4396   -9.0801   16.7132 C   0  0  0  0  0  0  0  0  0  0  0  0
   -0.2575   -8.6234   16.8582 C   0  0  0  0  0  0  0  0  0  0  0  0
    4.0614   -7.0367   27.0106 N   0  0  0  0  0  0  0  0  0  0  0  0
   -2.9133  -11.6279   18.7578 C   0  0  0  0  0  0  0  0  0  0  0  0
    4.5688  -10.1291   29.5758 C   0  0  0  0  0  0  0  0  0  0  0  0
    2.1008   -9.0410   29.1852 N   0  0  0  0  0  0  0  0  0  0  0  0
    3.4829  -10.5697   30.2091 N   0  0  0  0  0  0  0  0  0  0  0  0
   -0.3363   -6.1172   27.5628 C   0  0  0  0  0  0  0  0  0  0  0  0
    3.0331   -7.4400   27.6362 C   0  0  0  0  0  0  0  0  0  0  0  0
    5.4553   -8.5933   27.9644 C   0  0  0  0  0  0  0  0  0  0  0  0
   -2.3870  -12.8440   19.2512 C   0  0  0  0  0  0  0  0  0  0  0  0
    0.5331   -7.6964   16.2751 C   0  0  0  0  0  0  0  0  0  0  0  0
   -0.6740  -10.8737   18.0482 C   0  0  0  0  0  0  0  0  0  0  0  0
    5.6751  -10.5870   29.7637 O   0  0  0  0  0  0  0  0  0  0  0  0
    1.7612   -5.6483   26.7172 C   0  0  0  0  0  0  0  0  0  0  0  0
    0.2221   -9.8326   17.4055 C   0  0  0  0  0  0  0  0  0  0  0  0
    4.3850   -9.0730   28.6745 C   0  0  0  0  0  0  0  0  0  0  0  0
  1  7  4  0
  1 22  4  0
  2 17  4  0
  2 20  4  0
  2 28  4  0
  3  6  1  0
  3 19  1  0
  4 19  1  0
  4 26  1  0
  5 17  4  0
  5 18  4  0
  6 20  1  0
  6 26  1  0
  7 24  4  0
  8 15  4  0
  8 24  4  0
  9 14  4  0
  9 21  4  0
 10 12  4  0
 10 27  4  0
 11 12  4  0
 11 23  4  0
 13 23  4  0
 13 27  4  0
 14 20  4  0
 15 22  4  0
 16 18  4  0
 16 25  2  0
 16 28  4  0
 21 28  4  0
 24 27  1  0
M  END
$$$$

 Created by Python create_sdf_string function

 28 31  0  0  0  0  0  0  0  0999 V2000
   -1.0054  -13.0622   19.1198 C   0  0  0  0  0  0  0  0  0  0  0  0
    3.1478   -8.5360   28.5161 C   0  0  0  0  0  0  0  0  0  0  0  0
    0.5798   -7.1906   27.9330 C   0  0  0  0  0  0  0  0  0  0  0  0
    0.3978   -5.1561   26.6955 C   0  0  0  0  0  0  0  0  0  0  0  0
    2.3063  -10.0533   30.0125 C   0  0  0  0  0  0  0  0  0  0  0  0
    1.8591   -6.8254   27.4685 N   0  0  0  0  0  0  0  0  0  0  0  0
   -0.2167  -12.1055   18.5568 C   0  0  0  0  0  0  0  0  0  0  0  0
   -2.0661  -10.6994   18.1916 C   0  0  0  0  0  0  0  0  0  0  0  0
    5.2703   -7.5691   27.1123 C   0  0  0  0  0  0  0  0  0  0  0  0
    1.6204   -9.9887   17.2935 C   0  0  0  0  0  0  0  0  0  0  0  0
    1.8931   -7.9265   16.2047 C   0  0  0  0  0  0  0  0  0  0  0  0
    2.4396   -9.0801   16.7132 C   0  0  0  0  0  0  0  0  0  0  0  0
   -0.2575   -8.6234   16.8582 C   0  0  0  0  0  0  0  0  0  0  0  0
    4.0614   -7.0367   27.0106 N   0  0  0  0  0  0  0  0  0  0  0  0
   -2.9133  -11.6279   18.7578 C   0  0  0  0  0  0  0  0  0  0  0  0
    4.5688  -10.1291   29.5758 C   0  0  0  0  0  0  0  0  0  0  0  0
    2.1008   -9.0410   29.1852 N   0  0  0  0  0  0  0  0  0  0  0  0
    3.4829  -10.5697   30.2091 N   0  0  0  0  0  0  0  0  0  0  0  0
   -0.3363   -6.1172   27.5628 C   0  0  0  0  0  0  0  0  0  0  0  0
    3.0331   -7.4400   27.6362 C   0  0  0  0  0  0  0  0  0  0  0  0
    5.4553   -8.5933   27.9644 C   0  0  0  0  0  0  0  0  0  0  0  0
   -2.3870  -12.8440   19.2512 C   0  0  0  0  0  0  0  0  0  0  0  0
    0.5331   -7.6964   16.2751 C   0  0  0  0  0  0  0  0  0  0  0  0
   -0.6740  -10.8737   18.0482 C   0  0  0  0  0  0  0  0  0  0  0  0
    5.6751  -10.5870   29.7637 O   0  0  0  0  0  0  0  0  0  0  0  0
    1.7612   -5.6483   26.7172 C   0  0  0  0  0  0  0  0  0  0  0  0
    0.2221   -9.8326   17.4055 C   0  0  0  0  0  0  0  0  0  0  0  0
    4.3850   -9.0730   28.6745 C   0  0  0  0  0  0  0  0  0  0  0  0
  1  7  4  0
  1 22  4  0
  2 17  4  0
  2 20  4  0
  2 28  4  0
  3  6  1  0
  3 19  1  0
  4 19  1  0
  4 26  1  0
  5 17  4  0
  5 18  4  0
  6 20  1  0
  6 26  1  0
  7 24  4  0
  8 15  4  0
  8 24  4  0
  9 14  4  0
  9 21  4  0
 10 12  4  0
 10 27  4  0
 11 12  4  0
 11 23  4  0
 13 23  4  0
 13 27  4  0
 14 20  4  0
 15 22  4  0
 16 18  4  0
 16 25  2  0
 16 28  4  0
 21 28  4  0
 24 27  1  0
M  END
$$$$

 Created by Python create_sdf_string function

 28 31  0  0  0  0  0  0  0  0999 V2000
   -1.0054  -13.0622   19.1198 C   0  0  0  0  0  0  0  0  0  0  0  0
    3.1478   -8.5360   28.5161 C   0  0  0  0  0  0  0  0  0  0  0  0
    0.5798   -7.1906   27.9330 C   0  0  0  0  0  0  0  0  0  0  0  0
    0.3978   -5.1561   26.6955 C   0  0  0  0  0  0  0  0  0  0  0  0
    2.3063  -10.0533   30.0125 C   0  0  0  0  0  0  0  0  0  0  0  0
    1.8591   -6.8254   27.4685 N   0  0  0  0  0  0  0  0  0  0  0  0
   -0.2167  -12.1055   18.5568 C   0  0  0  0  0  0  0  0  0  0  0  0
   -2.0661  -10.6994   18.1916 C   0  0  0  0  0  0  0  0  0  0  0  0
    5.2703   -7.5691   27.1123 C   0  0  0  0  0  0  0  0  0  0  0  0
    1.6204   -9.9887   17.2935 C   0  0  0  0  0  0  0  0  0  0  0  0
    1.8931   -7.9265   16.2047 C   0  0  0  0  0  0  0  0  0  0  0  0
    2.4396   -9.0801   16.7132 C   0  0  0  0  0  0  0  0  0  0  0  0
   -0.2575   -8.6234   16.8582 C   0  0  0  0  0  0  0  0  0  0  0  0
    4.0614   -7.0367   27.0106 N   0  0  0  0  0  0  0  0  0  0  0  0
   -2.9133  -11.6279   18.7578 C   0  0  0  0  0  0  0  0  0  0  0  0
    4.5688  -10.1291   29.5758 C   0  0  0  0  0  0  0  0  0  0  0  0
    2.1008   -9.0410   29.1852 N   0  0  0  0  0  0  0  0  0  0  0  0
    3.4829  -10.5697   30.2091 N   0  0  0  0  0  0  0  0  0  0  0  0
   -0.3363   -6.1172   27.5628 C   0  0  0  0  0  0  0  0  0  0  0  0
    3.0331   -7.4400   27.6362 C   0  0  0  0  0  0  0  0  0  0  0  0
    5.4553   -8.5933   27.9644 C   0  0  0  0  0  0  0  0  0  0  0  0
   -2.3870  -12.8440   19.2512 C   0  0  0  0  0  0  0  0  0  0  0  0
    0.5331   -7.6964   16.2751 C   0  0  0  0  0  0  0  0  0  0  0  0
   -0.6740  -10.8737   18.0482 C   0  0  0  0  0  0  0  0  0  0  0  0
    5.6751  -10.5870   29.7637 O   0  0  0  0  0  0  0  0  0  0  0  0
    1.7612   -5.6483   26.7172 C   0  0  0  0  0  0  0  0  0  0  0  0
    0.2221   -9.8326   17.4055 C   0  0  0  0  0  0  0  0  0  0  0  0
    4.3850   -9.0730   28.6745 C   0  0  0  0  0  0  0  0  0  0  0  0
  1  7  4  0
  1 22  4  0
  2 17  4  0
  2 20  4  0
  2 28  4  0
  3  6  1  0
  3 19  1  0
  4 19  1  0
  4 26  1  0
  5 17  4  0
  5 18  4  0
  6 20  1  0
  6 26  1  0
  7 24  4  0
  8 15  4  0
  8 24  4  0
  9 14  4  0
  9 21  4  0
 10 12  4  0
 10 27  4  0
 11 12  4  0
 11 23  4  0
 13 23  4  0
 13 27  4  0
 14 20  4  0
 15 22  4  0
 16 18  4  0
 16 25  2  0
 16 28  4  0
 21 28  4  0
 24 27  1  0
M  END
$$$$

 Created by Python create_sdf_string function

 28 31  0  0  0  0  0  0  0  0999 V2000
   -1.0054  -13.0622   19.1198 C   0  0  0  0  0  0  0  0  0  0  0  0
    3.1478   -8.5360   28.5161 C   0  0  0  0  0  0  0  0  0  0  0  0
    0.5798   -7.1906   27.9330 C   0  0  0  0  0  0  0  0  0  0  0  0
    0.3978   -5.1561   26.6955 C   0  0  0  0  0  0  0  0  0  0  0  0
    2.3063  -10.0533   30.0125 C   0  0  0  0  0  0  0  0  0  0  0  0
    1.8591   -6.8254   27.4685 N   0  0  0  0  0  0  0  0  0  0  0  0
   -0.2167  -12.1055   18.5568 C   0  0  0  0  0  0  0  0  0  0  0  0
   -2.0661  -10.6994   18.1916 C   0  0  0  0  0  0  0  0  0  0  0  0
    5.2703   -7.5691   27.1123 C   0  0  0  0  0  0  0  0  0  0  0  0
    1.6204   -9.9887   17.2935 C   0  0  0  0  0  0  0  0  0  0  0  0
    1.8931   -7.9265   16.2047 C   0  0  0  0  0  0  0  0  0  0  0  0
    2.4396   -9.0801   16.7132 C   0  0  0  0  0  0  0  0  0  0  0  0
   -0.2575   -8.6234   16.8582 C   0  0  0  0  0  0  0  0  0  0  0  0
    4.0614   -7.0367   27.0106 N   0  0  0  0  0  0  0  0  0  0  0  0
   -2.9133  -11.6279   18.7578 C   0  0  0  0  0  0  0  0  0  0  0  0
    4.5688  -10.1291   29.5758 C   0  0  0  0  0  0  0  0  0  0  0  0
    2.1008   -9.0410   29.1852 N   0  0  0  0  0  0  0  0  0  0  0  0
    3.4829  -10.5697   30.2091 N   0  0  0  0  0  0  0  0  0  0  0  0
   -0.3363   -6.1172   27.5628 C   0  0  0  0  0  0  0  0  0  0  0  0
    3.0331   -7.4400   27.6362 C   0  0  0  0  0  0  0  0  0  0  0  0
    5.4553   -8.5933   27.9644 C   0  0  0  0  0  0  0  0  0  0  0  0
   -2.3870  -12.8440   19.2512 C   0  0  0  0  0  0  0  0  0  0  0  0
    0.5331   -7.6964   16.2751 C   0  0  0  0  0  0  0  0  0  0  0  0
   -0.6740  -10.8737   18.0482 C   0  0  0  0  0  0  0  0  0  0  0  0
    5.6751  -10.5870   29.7637 O   0  0  0  0  0  0  0  0  0  0  0  0
    1.7612   -5.6483   26.7172 C   0  0  0  0  0  0  0  0  0  0  0  0
    0.2221   -9.8326   17.4055 C   0  0  0  0  0  0  0  0  0  0  0  0
    4.3850   -9.0730   28.6745 C   0  0  0  0  0  0  0  0  0  0  0  0
  1  7  4  0
  1 22  4  0
  2 17  4  0
  2 20  4  0
  2 28  4  0
  3  6  1  0
  3 19  1  0
  4 19  1  0
  4 26  1  0
  5 17  4  0
  5 18  4  0
  6 20  1  0
  6 26  1  0
  7 24  4  0
  8 15  4  0
  8 24  4  0
  9 14  4  0
  9 21  4  0
 10 12  4  0
 10 27  4  0
 11 12  4  0
 11 23  4  0
 13 23  4  0
 13 27  4  0
 14 20  4  0
 15 22  4  0
 16 18  4  0
 16 25  2  0
 16 28  4  0
 21 28  4  0
 24 27  1  0
M  END
$$$$

 Created by Python create_sdf_string function

 28 31  0  0  0  0  0  0  0  0999 V2000
   -1.0054  -13.0622   19.1198 C   0  0  0  0  0  0  0  0  0  0  0  0
    3.1478   -8.5360   28.5161 C   0  0  0  0  0  0  0  0  0  0  0  0
    0.5798   -7.1906   27.9330 C   0  0  0  0  0  0  0  0  0  0  0  0
    0.3978   -5.1561   26.6955 C   0  0  0  0  0  0  0  0  0  0  0  0
    2.3063  -10.0533   30.0125 C   0  0  0  0  0  0  0  0  0  0  0  0
    1.8591   -6.8254   27.4685 N   0  0  0  0  0  0  0  0  0  0  0  0
   -0.2167  -12.1055   18.5568 C   0  0  0  0  0  0  0  0  0  0  0  0
   -2.0661  -10.6994   18.1916 C   0  0  0  0  0  0  0  0  0  0  0  0
    5.2703   -7.5691   27.1123 C   0  0  0  0  0  0  0  0  0  0  0  0
    1.6204   -9.9887   17.2935 C   0  0  0  0  0  0  0  0  0  0  0  0
    1.8931   -7.9265   16.2047 C   0  0  0  0  0  0  0  0  0  0  0  0
    2.4396   -9.0801   16.7132 C   0  0  0  0  0  0  0  0  0  0  0  0
   -0.2575   -8.6234   16.8582 C   0  0  0  0  0  0  0  0  0  0  0  0
    4.0614   -7.0367   27.0106 N   0  0  0  0  0  0  0  0  0  0  0  0
   -2.9133  -11.6279   18.7578 C   0  0  0  0  0  0  0  0  0  0  0  0
    4.5688  -10.1291   29.5758 C   0  0  0  0  0  0  0  0  0  0  0  0
    2.1008   -9.0410   29.1852 N   0  0  0  0  0  0  0  0  0  0  0  0
    3.4829  -10.5697   30.2091 N   0  0  0  0  0  0  0  0  0  0  0  0
   -0.3363   -6.1172   27.5628 C   0  0  0  0  0  0  0  0  0  0  0  0
    3.0331   -7.4400   27.6362 C   0  0  0  0  0  0  0  0  0  0  0  0
    5.4553   -8.5933   27.9644 C   0  0  0  0  0  0  0  0  0  0  0  0
   -2.3870  -12.8440   19.2512 C   0  0  0  0  0  0  0  0  0  0  0  0
    0.5331   -7.6964   16.2751 C   0  0  0  0  0  0  0  0  0  0  0  0
   -0.6740  -10.8737   18.0482 C   0  0  0  0  0  0  0  0  0  0  0  0
    5.6751  -10.5870   29.7637 O   0  0  0  0  0  0  0  0  0  0  0  0
    1.7612   -5.6483   26.7172 C   0  0  0  0  0  0  0  0  0  0  0  0
    0.2221   -9.8326   17.4055 C   0  0  0  0  0  0  0  0  0  0  0  0
    4.3850   -9.0730   28.6745 C   0  0  0  0  0  0  0  0  0  0  0  0
  1  7  4  0
  1 22  4  0
  2 17  4  0
  2 20  4  0
  2 28  4  0
  3  6  1  0
  3 19  1  0
  4 19  1  0
  4 26  1  0
  5 17  4  0
  5 18  4  0
  6 20  1  0
  6 26  1  0
  7 24  4  0
  8 15  4  0
  8 24  4  0
  9 14  4  0
  9 21  4  0
 10 12  4  0
 10 27  4  0
 11 12  4  0
 11 23  4  0
 13 23  4  0
 13 27  4  0
 14 20  4  0
 15 22  4  0
 16 18  4  0
 16 25  2  0
 16 28  4  0
 21 28  4  0
 24 27  1  0
M  END
$$$$

 Created by Python create_sdf_string function

 28 31  0  0  0  0  0  0  0  0999 V2000
   -1.0054  -13.0622   19.1198 C   0  0  0  0  0  0  0  0  0  0  0  0
    3.1478   -8.5360   28.5161 C   0  0  0  0  0  0  0  0  0  0  0  0
    0.5798   -7.1906   27.9330 C   0  0  0  0  0  0  0  0  0  0  0  0
    0.3978   -5.1561   26.6955 C   0  0  0  0  0  0  0  0  0  0  0  0
    2.3063  -10.0533   30.0125 C   0  0  0  0  0  0  0  0  0  0  0  0
    1.8591   -6.8254   27.4685 N   0  0  0  0  0  0  0  0  0  0  0  0
   -0.2167  -12.1055   18.5568 C   0  0  0  0  0  0  0  0  0  0  0  0
   -2.0661  -10.6994   18.1916 C   0  0  0  0  0  0  0  0  0  0  0  0
    5.2703   -7.5691   27.1123 C   0  0  0  0  0  0  0  0  0  0  0  0
    1.6204   -9.9887   17.2935 C   0  0  0  0  0  0  0  0  0  0  0  0
    1.8931   -7.9265   16.2047 C   0  0  0  0  0  0  0  0  0  0  0  0
    2.4396   -9.0801   16.7132 C   0  0  0  0  0  0  0  0  0  0  0  0
   -0.2575   -8.6234   16.8582 C   0  0  0  0  0  0  0  0  0  0  0  0
    4.0614   -7.0367   27.0106 N   0  0  0  0  0  0  0  0  0  0  0  0
   -2.9133  -11.6279   18.7578 C   0  0  0  0  0  0  0  0  0  0  0  0
    4.5688  -10.1291   29.5758 C   0  0  0  0  0  0  0  0  0  0  0  0
    2.1008   -9.0410   29.1852 N   0  0  0  0  0  0  0  0  0  0  0  0
    3.4829  -10.5697   30.2091 N   0  0  0  0  0  0  0  0  0  0  0  0
   -0.3363   -6.1172   27.5628 C   0  0  0  0  0  0  0  0  0  0  0  0
    3.0331   -7.4400   27.6362 C   0  0  0  0  0  0  0  0  0  0  0  0
    5.4553   -8.5933   27.9644 C   0  0  0  0  0  0  0  0  0  0  0  0
   -2.3870  -12.8440   19.2512 C   0  0  0  0  0  0  0  0  0  0  0  0
    0.5331   -7.6964   16.2751 C   0  0  0  0  0  0  0  0  0  0  0  0
   -0.6740  -10.8737   18.0482 C   0  0  0  0  0  0  0  0  0  0  0  0
    5.6751  -10.5870   29.7637 O   0  0  0  0  0  0  0  0  0  0  0  0
    1.7612   -5.6483   26.7172 C   0  0  0  0  0  0  0  0  0  0  0  0
    0.2221   -9.8326   17.4055 C   0  0  0  0  0  0  0  0  0  0  0  0
    4.3850   -9.0730   28.6745 C   0  0  0  0  0  0  0  0  0  0  0  0
  1  7  4  0
  1 22  4  0
  2 17  4  0
  2 20  4  0
  2 28  4  0
  3  6  1  0
  3 19  1  0
  4 19  1  0
  4 26  1  0
  5 17  4  0
  5 18  4  0
  6 20  1  0
  6 26  1  0
  7 24  4  0
  8 15  4  0
  8 24  4  0
  9 14  4  0
  9 21  4  0
 10 12  4  0
 10 27  4  0
 11 12  4  0
 11 23  4  0
 13 23  4  0
 13 27  4  0
 14 20  4  0
 15 22  4  0
 16 18  4  0
 16 25  2  0
 16 28  4  0
 21 28  4  0
 24 27  1  0
M  END
$$$$

 Created by Python create_sdf_string function

 28 31  0  0  0  0  0  0  0  0999 V2000
   -1.0054  -13.0622   19.1198 C   0  0  0  0  0  0  0  0  0  0  0  0
    3.1478   -8.5360   28.5161 C   0  0  0  0  0  0  0  0  0  0  0  0
    0.5798   -7.1906   27.9330 C   0  0  0  0  0  0  0  0  0  0  0  0
    0.3978   -5.1561   26.6955 C   0  0  0  0  0  0  0  0  0  0  0  0
    2.3063  -10.0533   30.0125 C   0  0  0  0  0  0  0  0  0  0  0  0
    1.8591   -6.8254   27.4685 N   0  0  0  0  0  0  0  0  0  0  0  0
   -0.2167  -12.1055   18.5568 C   0  0  0  0  0  0  0  0  0  0  0  0
   -2.0661  -10.6994   18.1916 C   0  0  0  0  0  0  0  0  0  0  0  0
    5.2703   -7.5691   27.1123 C   0  0  0  0  0  0  0  0  0  0  0  0
    1.6204   -9.9887   17.2935 C   0  0  0  0  0  0  0  0  0  0  0  0
    1.8931   -7.9265   16.2047 C   0  0  0  0  0  0  0  0  0  0  0  0
    2.4396   -9.0801   16.7132 C   0  0  0  0  0  0  0  0  0  0  0  0
   -0.2575   -8.6234   16.8582 C   0  0  0  0  0  0  0  0  0  0  0  0
    4.0614   -7.0367   27.0106 N   0  0  0  0  0  0  0  0  0  0  0  0
   -2.9133  -11.6279   18.7578 C   0  0  0  0  0  0  0  0  0  0  0  0
    4.5688  -10.1291   29.5758 C   0  0  0  0  0  0  0  0  0  0  0  0
    2.1008   -9.0410   29.1852 N   0  0  0  0  0  0  0  0  0  0  0  0
    3.4829  -10.5697   30.2091 N   0  0  0  0  0  0  0  0  0  0  0  0
   -0.3363   -6.1172   27.5628 C   0  0  0  0  0  0  0  0  0  0  0  0
    3.0331   -7.4400   27.6362 C   0  0  0  0  0  0  0  0  0  0  0  0
    5.4553   -8.5933   27.9644 C   0  0  0  0  0  0  0  0  0  0  0  0
   -2.3870  -12.8440   19.2512 C   0  0  0  0  0  0  0  0  0  0  0  0
    0.5331   -7.6964   16.2751 C   0  0  0  0  0  0  0  0  0  0  0  0
   -0.6740  -10.8737   18.0482 C   0  0  0  0  0  0  0  0  0  0  0  0
    5.6751  -10.5870   29.7637 O   0  0  0  0  0  0  0  0  0  0  0  0
    1.7612   -5.6483   26.7172 C   0  0  0  0  0  0  0  0  0  0  0  0
    0.2221   -9.8326   17.4055 C   0  0  0  0  0  0  0  0  0  0  0  0
    4.3850   -9.0730   28.6745 C   0  0  0  0  0  0  0  0  0  0  0  0
  1  7  4  0
  1 22  4  0
  2 17  4  0
  2 20  4  0
  2 28  4  0
  3  6  1  0
  3 19  1  0
  4 19  1  0
  4 26  1  0
  5 17  4  0
  5 18  4  0
  6 20  1  0
  6 26  1  0
  7 24  4  0
  8 15  4  0
  8 24  4  0
  9 14  4  0
  9 21  4  0
 10 12  4  0
 10 27  4  0
 11 12  4  0
 11 23  4  0
 13 23  4  0
 13 27  4  0
 14 20  4  0
 15 22  4  0
 16 18  4  0
 16 25  2  0
 16 28  4  0
 21 28  4  0
 24 27  1  0
M  END
$$$$

 Created by Python create_sdf_string function

 28 31  0  0  0  0  0  0  0  0999 V2000
   -1.0054  -13.0622   19.1198 C   0  0  0  0  0  0  0  0  0  0  0  0
    3.1478   -8.5360   28.5161 C   0  0  0  0  0  0  0  0  0  0  0  0
    0.5798   -7.1906   27.9330 C   0  0  0  0  0  0  0  0  0  0  0  0
    0.3978   -5.1561   26.6955 C   0  0  0  0  0  0  0  0  0  0  0  0
    2.3063  -10.0533   30.0125 C   0  0  0  0  0  0  0  0  0  0  0  0
    1.8591   -6.8254   27.4685 N   0  0  0  0  0  0  0  0  0  0  0  0
   -0.2167  -12.1055   18.5568 C   0  0  0  0  0  0  0  0  0  0  0  0
   -2.0661  -10.6994   18.1916 C   0  0  0  0  0  0  0  0  0  0  0  0
    5.2703   -7.5691   27.1123 C   0  0  0  0  0  0  0  0  0  0  0  0
    1.6204   -9.9887   17.2935 C   0  0  0  0  0  0  0  0  0  0  0  0
    1.8931   -7.9265   16.2047 C   0  0  0  0  0  0  0  0  0  0  0  0
    2.4396   -9.0801   16.7132 C   0  0  0  0  0  0  0  0  0  0  0  0
   -0.2575   -8.6234   16.8582 C   0  0  0  0  0  0  0  0  0  0  0  0
    4.0614   -7.0367   27.0106 N   0  0  0  0  0  0  0  0  0  0  0  0
   -2.9133  -11.6279   18.7578 C   0  0  0  0  0  0  0  0  0  0  0  0
    4.5688  -10.1291   29.5758 C   0  0  0  0  0  0  0  0  0  0  0  0
    2.1008   -9.0410   29.1852 N   0  0  0  0  0  0  0  0  0  0  0  0
    3.4829  -10.5697   30.2091 N   0  0  0  0  0  0  0  0  0  0  0  0
   -0.3363   -6.1172   27.5628 C   0  0  0  0  0  0  0  0  0  0  0  0
    3.0331   -7.4400   27.6362 C   0  0  0  0  0  0  0  0  0  0  0  0
    5.4553   -8.5933   27.9644 C   0  0  0  0  0  0  0  0  0  0  0  0
   -2.3870  -12.8440   19.2512 C   0  0  0  0  0  0  0  0  0  0  0  0
    0.5331   -7.6964   16.2751 C   0  0  0  0  0  0  0  0  0  0  0  0
   -0.6740  -10.8737   18.0482 C   0  0  0  0  0  0  0  0  0  0  0  0
    5.6751  -10.5870   29.7637 O   0  0  0  0  0  0  0  0  0  0  0  0
    1.7612   -5.6483   26.7172 C   0  0  0  0  0  0  0  0  0  0  0  0
    0.2221   -9.8326   17.4055 C   0  0  0  0  0  0  0  0  0  0  0  0
    4.3850   -9.0730   28.6745 C   0  0  0  0  0  0  0  0  0  0  0  0
  1  7  4  0
  1 22  4  0
  2 17  4  0
  2 20  4  0
  2 28  4  0
  3  6  1  0
  3 19  1  0
  4 19  1  0
  4 26  1  0
  5 17  4  0
  5 18  4  0
  6 20  1  0
  6 26  1  0
  7 24  4  0
  8 15  4  0
  8 24  4  0
  9 14  4  0
  9 21  4  0
 10 12  4  0
 10 27  4  0
 11 12  4  0
 11 23  4  0
 13 23  4  0
 13 27  4  0
 14 20  4  0
 15 22  4  0
 16 18  4  0
 16 25  2  0
 16 28  4  0
 21 28  4  0
 24 27  1  0
M  END
$$$$

 Created by Python create_sdf_string function

 28 31  0  0  0  0  0  0  0  0999 V2000
   -1.0054  -13.0622   19.1198 C   0  0  0  0  0  0  0  0  0  0  0  0
    3.1478   -8.5360   28.5161 C   0  0  0  0  0  0  0  0  0  0  0  0
    0.5798   -7.1906   27.9330 C   0  0  0  0  0  0  0  0  0  0  0  0
    0.3978   -5.1561   26.6955 C   0  0  0  0  0  0  0  0  0  0  0  0
    2.3063  -10.0533   30.0125 C   0  0  0  0  0  0  0  0  0  0  0  0
    1.8591   -6.8254   27.4685 N   0  0  0  0  0  0  0  0  0  0  0  0
   -0.2167  -12.1055   18.5568 C   0  0  0  0  0  0  0  0  0  0  0  0
   -2.0661  -10.6994   18.1916 C   0  0  0  0  0  0  0  0  0  0  0  0
    5.2703   -7.5691   27.1123 C   0  0  0  0  0  0  0  0  0  0  0  0
    1.6204   -9.9887   17.2935 C   0  0  0  0  0  0  0  0  0  0  0  0
    1.8931   -7.9265   16.2047 C   0  0  0  0  0  0  0  0  0  0  0  0
    2.4396   -9.0801   16.7132 C   0  0  0  0  0  0  0  0  0  0  0  0
   -0.2575   -8.6234   16.8582 C   0  0  0  0  0  0  0  0  0  0  0  0
    4.0614   -7.0367   27.0106 N   0  0  0  0  0  0  0  0  0  0  0  0
   -2.9133  -11.6279   18.7578 C   0  0  0  0  0  0  0  0  0  0  0  0
    4.5688  -10.1291   29.5758 C   0  0  0  0  0  0  0  0  0  0  0  0
    2.1008   -9.0410   29.1852 N   0  0  0  0  0  0  0  0  0  0  0  0
    3.4829  -10.5697   30.2091 N   0  0  0  0  0  0  0  0  0  0  0  0
   -0.3363   -6.1172   27.5628 C   0  0  0  0  0  0  0  0  0  0  0  0
    3.0331   -7.4400   27.6362 C   0  0  0  0  0  0  0  0  0  0  0  0
    5.4553   -8.5933   27.9644 C   0  0  0  0  0  0  0  0  0  0  0  0
   -2.3870  -12.8440   19.2512 C   0  0  0  0  0  0  0  0  0  0  0  0
    0.5331   -7.6964   16.2751 C   0  0  0  0  0  0  0  0  0  0  0  0
   -0.6740  -10.8737   18.0482 C   0  0  0  0  0  0  0  0  0  0  0  0
    5.6751  -10.5870   29.7637 O   0  0  0  0  0  0  0  0  0  0  0  0
    1.7612   -5.6483   26.7172 C   0  0  0  0  0  0  0  0  0  0  0  0
    0.2221   -9.8326   17.4055 C   0  0  0  0  0  0  0  0  0  0  0  0
    4.3850   -9.0730   28.6745 C   0  0  0  0  0  0  0  0  0  0  0  0
  1  7  4  0
  1 22  4  0
  2 17  4  0
  2 20  4  0
  2 28  4  0
  3  6  1  0
  3 19  1  0
  4 19  1  0
  4 26  1  0
  5 17  4  0
  5 18  4  0
  6 20  1  0
  6 26  1  0
  7 24  4  0
  8 15  4  0
  8 24  4  0
  9 14  4  0
  9 21  4  0
 10 12  4  0
 10 27  4  0
 11 12  4  0
 11 23  4  0
 13 23  4  0
 13 27  4  0
 14 20  4  0
 15 22  4  0
 16 18  4  0
 16 25  2  0
 16 28  4  0
 21 28  4  0
 24 27  1  0
M  END
$$$$

 Created by Python create_sdf_string function

 28 31  0  0  0  0  0  0  0  0999 V2000
   -1.0054  -13.0622   19.1198 C   0  0  0  0  0  0  0  0  0  0  0  0
    3.1478   -8.5360   28.5161 C   0  0  0  0  0  0  0  0  0  0  0  0
    0.5798   -7.1906   27.9330 C   0  0  0  0  0  0  0  0  0  0  0  0
    0.3978   -5.1561   26.6955 C   0  0  0  0  0  0  0  0  0  0  0  0
    2.3063  -10.0533   30.0125 C   0  0  0  0  0  0  0  0  0  0  0  0
    1.8591   -6.8254   27.4685 N   0  0  0  0  0  0  0  0  0  0  0  0
   -0.2167  -12.1055   18.5568 C   0  0  0  0  0  0  0  0  0  0  0  0
   -2.0661  -10.6994   18.1916 C   0  0  0  0  0  0  0  0  0  0  0  0
    5.2703   -7.5691   27.1123 C   0  0  0  0  0  0  0  0  0  0  0  0
    1.6204   -9.9887   17.2935 C   0  0  0  0  0  0  0  0  0  0  0  0
    1.8931   -7.9265   16.2047 C   0  0  0  0  0  0  0  0  0  0  0  0
    2.4396   -9.0801   16.7132 C   0  0  0  0  0  0  0  0  0  0  0  0
   -0.2575   -8.6234   16.8582 C   0  0  0  0  0  0  0  0  0  0  0  0
    4.0614   -7.0367   27.0106 N   0  0  0  0  0  0  0  0  0  0  0  0
   -2.9133  -11.6279   18.7578 C   0  0  0  0  0  0  0  0  0  0  0  0
    4.5688  -10.1291   29.5758 C   0  0  0  0  0  0  0  0  0  0  0  0
    2.1008   -9.0410   29.1852 N   0  0  0  0  0  0  0  0  0  0  0  0
    3.4829  -10.5697   30.2091 N   0  0  0  0  0  0  0  0  0  0  0  0
   -0.3363   -6.1172   27.5628 C   0  0  0  0  0  0  0  0  0  0  0  0
    3.0331   -7.4400   27.6362 C   0  0  0  0  0  0  0  0  0  0  0  0
    5.4553   -8.5933   27.9644 C   0  0  0  0  0  0  0  0  0  0  0  0
   -2.3870  -12.8440   19.2512 C   0  0  0  0  0  0  0  0  0  0  0  0
    0.5331   -7.6964   16.2751 C   0  0  0  0  0  0  0  0  0  0  0  0
   -0.6740  -10.8737   18.0482 C   0  0  0  0  0  0  0  0  0  0  0  0
    5.6751  -10.5870   29.7637 O   0  0  0  0  0  0  0  0  0  0  0  0
    1.7612   -5.6483   26.7172 C   0  0  0  0  0  0  0  0  0  0  0  0
    0.2221   -9.8326   17.4055 C   0  0  0  0  0  0  0  0  0  0  0  0
    4.3850   -9.0730   28.6745 C   0  0  0  0  0  0  0  0  0  0  0  0
  1  7  4  0
  1 22  4  0
  2 17  4  0
  2 20  4  0
  2 28  4  0
  3  6  1  0
  3 19  1  0
  4 19  1  0
  4 26  1  0
  5 17  4  0
  5 18  4  0
  6 20  1  0
  6 26  1  0
  7 24  4  0
  8 15  4  0
  8 24  4  0
  9 14  4  0
  9 21  4  0
 10 12  4  0
 10 27  4  0
 11 12  4  0
 11 23  4  0
 13 23  4  0
 13 27  4  0
 14 20  4  0
 15 22  4  0
 16 18  4  0
 16 25  2  0
 16 28  4  0
 21 28  4  0
 24 27  1  0
M  END
$$$$

 Created by Python create_sdf_string function

 28 31  0  0  0  0  0  0  0  0999 V2000
   -1.0054  -13.0622   19.1198 C   0  0  0  0  0  0  0  0  0  0  0  0
    3.1478   -8.5360   28.5161 C   0  0  0  0  0  0  0  0  0  0  0  0
    0.5798   -7.1906   27.9330 C   0  0  0  0  0  0  0  0  0  0  0  0
    0.3978   -5.1561   26.6955 C   0  0  0  0  0  0  0  0  0  0  0  0
    2.3063  -10.0533   30.0125 C   0  0  0  0  0  0  0  0  0  0  0  0
    1.8591   -6.8254   27.4685 N   0  0  0  0  0  0  0  0  0  0  0  0
   -0.2167  -12.1055   18.5568 C   0  0  0  0  0  0  0  0  0  0  0  0
   -2.0661  -10.6994   18.1916 C   0  0  0  0  0  0  0  0  0  0  0  0
    5.2703   -7.5691   27.1123 C   0  0  0  0  0  0  0  0  0  0  0  0
    1.6204   -9.9887   17.2935 C   0  0  0  0  0  0  0  0  0  0  0  0
    1.8931   -7.9265   16.2047 C   0  0  0  0  0  0  0  0  0  0  0  0
    2.4396   -9.0801   16.7132 C   0  0  0  0  0  0  0  0  0  0  0  0
   -0.2575   -8.6234   16.8582 C   0  0  0  0  0  0  0  0  0  0  0  0
    4.0614   -7.0367   27.0106 N   0  0  0  0  0  0  0  0  0  0  0  0
   -2.9133  -11.6279   18.7578 C   0  0  0  0  0  0  0  0  0  0  0  0
    4.5688  -10.1291   29.5758 C   0  0  0  0  0  0  0  0  0  0  0  0
    2.1008   -9.0410   29.1852 N   0  0  0  0  0  0  0  0  0  0  0  0
    3.4829  -10.5697   30.2091 N   0  0  0  0  0  0  0  0  0  0  0  0
   -0.3363   -6.1172   27.5628 C   0  0  0  0  0  0  0  0  0  0  0  0
    3.0331   -7.4400   27.6362 C   0  0  0  0  0  0  0  0  0  0  0  0
    5.4553   -8.5933   27.9644 C   0  0  0  0  0  0  0  0  0  0  0  0
   -2.3870  -12.8440   19.2512 C   0  0  0  0  0  0  0  0  0  0  0  0
    0.5331   -7.6964   16.2751 C   0  0  0  0  0  0  0  0  0  0  0  0
   -0.6740  -10.8737   18.0482 C   0  0  0  0  0  0  0  0  0  0  0  0
    5.6751  -10.5870   29.7637 O   0  0  0  0  0  0  0  0  0  0  0  0
    1.7612   -5.6483   26.7172 C   0  0  0  0  0  0  0  0  0  0  0  0
    0.2221   -9.8326   17.4055 C   0  0  0  0  0  0  0  0  0  0  0  0
    4.3850   -9.0730   28.6745 C   0  0  0  0  0  0  0  0  0  0  0  0
  1  7  4  0
  1 22  4  0
  2 17  4  0
  2 20  4  0
  2 28  4  0
  3  6  1  0
  3 19  1  0
  4 19  1  0
  4 26  1  0
  5 17  4  0
  5 18  4  0
  6 20  1  0
  6 26  1  0
  7 24  4  0
  8 15  4  0
  8 24  4  0
  9 14  4  0
  9 21  4  0
 10 12  4  0
 10 27  4  0
 11 12  4  0
 11 23  4  0
 13 23  4  0
 13 27  4  0
 14 20  4  0
 15 22  4  0
 16 18  4  0
 16 25  2  0
 16 28  4  0
 21 28  4  0
 24 27  1  0
M  END
$$$$

 Created by Python create_sdf_string function

 28 31  0  0  0  0  0  0  0  0999 V2000
   -1.0054  -13.0622   19.1198 C   0  0  0  0  0  0  0  0  0  0  0  0
    3.1478   -8.5360   28.5161 C   0  0  0  0  0  0  0  0  0  0  0  0
    0.5798   -7.1906   27.9330 C   0  0  0  0  0  0  0  0  0  0  0  0
    0.3978   -5.1561   26.6955 C   0  0  0  0  0  0  0  0  0  0  0  0
    2.3063  -10.0533   30.0125 C   0  0  0  0  0  0  0  0  0  0  0  0
    1.8591   -6.8254   27.4685 N   0  0  0  0  0  0  0  0  0  0  0  0
   -0.2167  -12.1055   18.5568 C   0  0  0  0  0  0  0  0  0  0  0  0
   -2.0661  -10.6994   18.1916 C   0  0  0  0  0  0  0  0  0  0  0  0
    5.2703   -7.5691   27.1123 C   0  0  0  0  0  0  0  0  0  0  0  0
    1.6204   -9.9887   17.2935 C   0  0  0  0  0  0  0  0  0  0  0  0
    1.8931   -7.9265   16.2047 C   0  0  0  0  0  0  0  0  0  0  0  0
    2.4396   -9.0801   16.7132 C   0  0  0  0  0  0  0  0  0  0  0  0
   -0.2575   -8.6234   16.8582 C   0  0  0  0  0  0  0  0  0  0  0  0
    4.0614   -7.0367   27.0106 N   0  0  0  0  0  0  0  0  0  0  0  0
   -2.9133  -11.6279   18.7578 C   0  0  0  0  0  0  0  0  0  0  0  0
    4.5688  -10.1291   29.5758 C   0  0  0  0  0  0  0  0  0  0  0  0
    2.1008   -9.0410   29.1852 N   0  0  0  0  0  0  0  0  0  0  0  0
    3.4829  -10.5697   30.2091 N   0  0  0  0  0  0  0  0  0  0  0  0
   -0.3363   -6.1172   27.5628 C   0  0  0  0  0  0  0  0  0  0  0  0
    3.0331   -7.4400   27.6362 C   0  0  0  0  0  0  0  0  0  0  0  0
    5.4553   -8.5933   27.9644 C   0  0  0  0  0  0  0  0  0  0  0  0
   -2.3870  -12.8440   19.2512 C   0  0  0  0  0  0  0  0  0  0  0  0
    0.5331   -7.6964   16.2751 C   0  0  0  0  0  0  0  0  0  0  0  0
   -0.6740  -10.8737   18.0482 C   0  0  0  0  0  0  0  0  0  0  0  0
    5.6751  -10.5870   29.7637 O   0  0  0  0  0  0  0  0  0  0  0  0
    1.7612   -5.6483   26.7172 C   0  0  0  0  0  0  0  0  0  0  0  0
    0.2221   -9.8326   17.4055 C   0  0  0  0  0  0  0  0  0  0  0  0
    4.3850   -9.0730   28.6745 C   0  0  0  0  0  0  0  0  0  0  0  0
  1  7  4  0
  1 22  4  0
  2 17  4  0
  2 20  4  0
  2 28  4  0
  3  6  1  0
  3 19  1  0
  4 19  1  0
  4 26  1  0
  5 17  4  0
  5 18  4  0
  6 20  1  0
  6 26  1  0
  7 24  4  0
  8 15  4  0
  8 24  4  0
  9 14  4  0
  9 21  4  0
 10 12  4  0
 10 27  4  0
 11 12  4  0
 11 23  4  0
 13 23  4  0
 13 27  4  0
 14 20  4  0
 15 22  4  0
 16 18  4  0
 16 25  2  0
 16 28  4  0
 21 28  4  0
 24 27  1  0
M  END
$$$$

 Created by Python create_sdf_string function

 28 31  0  0  0  0  0  0  0  0999 V2000
   -1.0054  -13.0622   19.1198 C   0  0  0  0  0  0  0  0  0  0  0  0
    3.1478   -8.5360   28.5161 C   0  0  0  0  0  0  0  0  0  0  0  0
    0.5798   -7.1906   27.9330 C   0  0  0  0  0  0  0  0  0  0  0  0
    0.3978   -5.1561   26.6955 C   0  0  0  0  0  0  0  0  0  0  0  0
    2.3063  -10.0533   30.0125 C   0  0  0  0  0  0  0  0  0  0  0  0
    1.8591   -6.8254   27.4685 N   0  0  0  0  0  0  0  0  0  0  0  0
   -0.2167  -12.1055   18.5568 C   0  0  0  0  0  0  0  0  0  0  0  0
   -2.0661  -10.6994   18.1916 C   0  0  0  0  0  0  0  0  0  0  0  0
    5.2703   -7.5691   27.1123 C   0  0  0  0  0  0  0  0  0  0  0  0
    1.6204   -9.9887   17.2935 C   0  0  0  0  0  0  0  0  0  0  0  0
    1.8931   -7.9265   16.2047 C   0  0  0  0  0  0  0  0  0  0  0  0
    2.4396   -9.0801   16.7132 C   0  0  0  0  0  0  0  0  0  0  0  0
   -0.2575   -8.6234   16.8582 C   0  0  0  0  0  0  0  0  0  0  0  0
    4.0614   -7.0367   27.0106 N   0  0  0  0  0  0  0  0  0  0  0  0
   -2.9133  -11.6279   18.7578 C   0  0  0  0  0  0  0  0  0  0  0  0
    4.5688  -10.1291   29.5758 C   0  0  0  0  0  0  0  0  0  0  0  0
    2.1008   -9.0410   29.1852 N   0  0  0  0  0  0  0  0  0  0  0  0
    3.4829  -10.5697   30.2091 N   0  0  0  0  0  0  0  0  0  0  0  0
   -0.3363   -6.1172   27.5628 C   0  0  0  0  0  0  0  0  0  0  0  0
    3.0331   -7.4400   27.6362 C   0  0  0  0  0  0  0  0  0  0  0  0
    5.4553   -8.5933   27.9644 C   0  0  0  0  0  0  0  0  0  0  0  0
   -2.3870  -12.8440   19.2512 C   0  0  0  0  0  0  0  0  0  0  0  0
    0.5331   -7.6964   16.2751 C   0  0  0  0  0  0  0  0  0  0  0  0
   -0.6740  -10.8737   18.0482 C   0  0  0  0  0  0  0  0  0  0  0  0
    5.6751  -10.5870   29.7637 O   0  0  0  0  0  0  0  0  0  0  0  0
    1.7612   -5.6483   26.7172 C   0  0  0  0  0  0  0  0  0  0  0  0
    0.2221   -9.8326   17.4055 C   0  0  0  0  0  0  0  0  0  0  0  0
    4.3850   -9.0730   28.6745 C   0  0  0  0  0  0  0  0  0  0  0  0
  1  7  4  0
  1 22  4  0
  2 17  4  0
  2 20  4  0
  2 28  4  0
  3  6  1  0
  3 19  1  0
  4 19  1  0
  4 26  1  0
  5 17  4  0
  5 18  4  0
  6 20  1  0
  6 26  1  0
  7 24  4  0
  8 15  4  0
  8 24  4  0
  9 14  4  0
  9 21  4  0
 10 12  4  0
 10 27  4  0
 11 12  4  0
 11 23  4  0
 13 23  4  0
 13 27  4  0
 14 20  4  0
 15 22  4  0
 16 18  4  0
 16 25  2  0
 16 28  4  0
 21 28  4  0
 24 27  1  0
M  END
$$$$

 Created by Python create_sdf_string function

 28 31  0  0  0  0  0  0  0  0999 V2000
   -1.0054  -13.0622   19.1198 C   0  0  0  0  0  0  0  0  0  0  0  0
    3.1478   -8.5360   28.5161 C   0  0  0  0  0  0  0  0  0  0  0  0
    0.5798   -7.1906   27.9330 C   0  0  0  0  0  0  0  0  0  0  0  0
    0.3978   -5.1561   26.6955 C   0  0  0  0  0  0  0  0  0  0  0  0
    2.3063  -10.0533   30.0125 C   0  0  0  0  0  0  0  0  0  0  0  0
    1.8591   -6.8254   27.4685 N   0  0  0  0  0  0  0  0  0  0  0  0
   -0.2167  -12.1055   18.5568 C   0  0  0  0  0  0  0  0  0  0  0  0
   -2.0661  -10.6994   18.1916 C   0  0  0  0  0  0  0  0  0  0  0  0
    5.2703   -7.5691   27.1123 C   0  0  0  0  0  0  0  0  0  0  0  0
    1.6204   -9.9887   17.2935 C   0  0  0  0  0  0  0  0  0  0  0  0
    1.8931   -7.9265   16.2047 C   0  0  0  0  0  0  0  0  0  0  0  0
    2.4396   -9.0801   16.7132 C   0  0  0  0  0  0  0  0  0  0  0  0
   -0.2575   -8.6234   16.8582 C   0  0  0  0  0  0  0  0  0  0  0  0
    4.0614   -7.0367   27.0106 N   0  0  0  0  0  0  0  0  0  0  0  0
   -2.9133  -11.6279   18.7578 C   0  0  0  0  0  0  0  0  0  0  0  0
    4.5688  -10.1291   29.5758 C   0  0  0  0  0  0  0  0  0  0  0  0
    2.1008   -9.0410   29.1852 N   0  0  0  0  0  0  0  0  0  0  0  0
    3.4829  -10.5697   30.2091 N   0  0  0  0  0  0  0  0  0  0  0  0
   -0.3363   -6.1172   27.5628 C   0  0  0  0  0  0  0  0  0  0  0  0
    3.0331   -7.4400   27.6362 C   0  0  0  0  0  0  0  0  0  0  0  0
    5.4553   -8.5933   27.9644 C   0  0  0  0  0  0  0  0  0  0  0  0
   -2.3870  -12.8440   19.2512 C   0  0  0  0  0  0  0  0  0  0  0  0
    0.5331   -7.6964   16.2751 C   0  0  0  0  0  0  0  0  0  0  0  0
   -0.6740  -10.8737   18.0482 C   0  0  0  0  0  0  0  0  0  0  0  0
    5.6751  -10.5870   29.7637 O   0  0  0  0  0  0  0  0  0  0  0  0
    1.7612   -5.6483   26.7172 C   0  0  0  0  0  0  0  0  0  0  0  0
    0.2221   -9.8326   17.4055 C   0  0  0  0  0  0  0  0  0  0  0  0
    4.3850   -9.0730   28.6745 C   0  0  0  0  0  0  0  0  0  0  0  0
  1  7  4  0
  1 22  4  0
  2 17  4  0
  2 20  4  0
  2 28  4  0
  3  6  1  0
  3 19  1  0
  4 19  1  0
  4 26  1  0
  5 17  4  0
  5 18  4  0
  6 20  1  0
  6 26  1  0
  7 24  4  0
  8 15  4  0
  8 24  4  0
  9 14  4  0
  9 21  4  0
 10 12  4  0
 10 27  4  0
 11 12  4  0
 11 23  4  0
 13 23  4  0
 13 27  4  0
 14 20  4  0
 15 22  4  0
 16 18  4  0
 16 25  2  0
 16 28  4  0
 21 28  4  0
 24 27  1  0
M  END
$$$$

 Created by Python create_sdf_string function

 28 31  0  0  0  0  0  0  0  0999 V2000
   -1.0054  -13.0622   19.1198 C   0  0  0  0  0  0  0  0  0  0  0  0
    3.1478   -8.5360   28.5161 C   0  0  0  0  0  0  0  0  0  0  0  0
    0.5798   -7.1906   27.9330 C   0  0  0  0  0  0  0  0  0  0  0  0
    0.3978   -5.1561   26.6955 C   0  0  0  0  0  0  0  0  0  0  0  0
    2.3063  -10.0533   30.0125 C   0  0  0  0  0  0  0  0  0  0  0  0
    1.8591   -6.8254   27.4685 N   0  0  0  0  0  0  0  0  0  0  0  0
   -0.2167  -12.1055   18.5568 C   0  0  0  0  0  0  0  0  0  0  0  0
   -2.0661  -10.6994   18.1916 C   0  0  0  0  0  0  0  0  0  0  0  0
    5.2703   -7.5691   27.1123 C   0  0  0  0  0  0  0  0  0  0  0  0
    1.6204   -9.9887   17.2935 C   0  0  0  0  0  0  0  0  0  0  0  0
    1.8931   -7.9265   16.2047 C   0  0  0  0  0  0  0  0  0  0  0  0
    2.4396   -9.0801   16.7132 C   0  0  0  0  0  0  0  0  0  0  0  0
   -0.2575   -8.6234   16.8582 C   0  0  0  0  0  0  0  0  0  0  0  0
    4.0614   -7.0367   27.0106 N   0  0  0  0  0  0  0  0  0  0  0  0
   -2.9133  -11.6279   18.7578 C   0  0  0  0  0  0  0  0  0  0  0  0
    4.5688  -10.1291   29.5758 C   0  0  0  0  0  0  0  0  0  0  0  0
    2.1008   -9.0410   29.1852 N   0  0  0  0  0  0  0  0  0  0  0  0
    3.4829  -10.5697   30.2091 N   0  0  0  0  0  0  0  0  0  0  0  0
   -0.3363   -6.1172   27.5628 C   0  0  0  0  0  0  0  0  0  0  0  0
    3.0331   -7.4400   27.6362 C   0  0  0  0  0  0  0  0  0  0  0  0
    5.4553   -8.5933   27.9644 C   0  0  0  0  0  0  0  0  0  0  0  0
   -2.3870  -12.8440   19.2512 C   0  0  0  0  0  0  0  0  0  0  0  0
    0.5331   -7.6964   16.2751 C   0  0  0  0  0  0  0  0  0  0  0  0
   -0.6740  -10.8737   18.0482 C   0  0  0  0  0  0  0  0  0  0  0  0
    5.6751  -10.5870   29.7637 O   0  0  0  0  0  0  0  0  0  0  0  0
    1.7612   -5.6483   26.7172 C   0  0  0  0  0  0  0  0  0  0  0  0
    0.2221   -9.8326   17.4055 C   0  0  0  0  0  0  0  0  0  0  0  0
    4.3850   -9.0730   28.6745 C   0  0  0  0  0  0  0  0  0  0  0  0
  1  7  4  0
  1 22  4  0
  2 17  4  0
  2 20  4  0
  2 28  4  0
  3  6  1  0
  3 19  1  0
  4 19  1  0
  4 26  1  0
  5 17  4  0
  5 18  4  0
  6 20  1  0
  6 26  1  0
  7 24  4  0
  8 15  4  0
  8 24  4  0
  9 14  4  0
  9 21  4  0
 10 12  4  0
 10 27  4  0
 11 12  4  0
 11 23  4  0
 13 23  4  0
 13 27  4  0
 14 20  4  0
 15 22  4  0
 16 18  4  0
 16 25  2  0
 16 28  4  0
 21 28  4  0
 24 27  1  0
M  END
$$$$

 Created by Python create_sdf_string function

 28 31  0  0  0  0  0  0  0  0999 V2000
   -1.0054  -13.0622   19.1198 C   0  0  0  0  0  0  0  0  0  0  0  0
    3.1478   -8.5360   28.5161 C   0  0  0  0  0  0  0  0  0  0  0  0
    0.5798   -7.1906   27.9330 C   0  0  0  0  0  0  0  0  0  0  0  0
    0.3978   -5.1561   26.6955 C   0  0  0  0  0  0  0  0  0  0  0  0
    2.3063  -10.0533   30.0125 C   0  0  0  0  0  0  0  0  0  0  0  0
    1.8591   -6.8254   27.4685 N   0  0  0  0  0  0  0  0  0  0  0  0
   -0.2167  -12.1055   18.5568 C   0  0  0  0  0  0  0  0  0  0  0  0
   -2.0661  -10.6994   18.1916 C   0  0  0  0  0  0  0  0  0  0  0  0
    5.2703   -7.5691   27.1123 C   0  0  0  0  0  0  0  0  0  0  0  0
    1.6204   -9.9887   17.2935 C   0  0  0  0  0  0  0  0  0  0  0  0
    1.8931   -7.9265   16.2047 C   0  0  0  0  0  0  0  0  0  0  0  0
    2.4396   -9.0801   16.7132 C   0  0  0  0  0  0  0  0  0  0  0  0
   -0.2575   -8.6234   16.8582 C   0  0  0  0  0  0  0  0  0  0  0  0
    4.0614   -7.0367   27.0106 N   0  0  0  0  0  0  0  0  0  0  0  0
   -2.9133  -11.6279   18.7578 C   0  0  0  0  0  0  0  0  0  0  0  0
    4.5688  -10.1291   29.5758 C   0  0  0  0  0  0  0  0  0  0  0  0
    2.1008   -9.0410   29.1852 N   0  0  0  0  0  0  0  0  0  0  0  0
    3.4829  -10.5697   30.2091 N   0  0  0  0  0  0  0  0  0  0  0  0
   -0.3363   -6.1172   27.5628 C   0  0  0  0  0  0  0  0  0  0  0  0
    3.0331   -7.4400   27.6362 C   0  0  0  0  0  0  0  0  0  0  0  0
    5.4553   -8.5933   27.9644 C   0  0  0  0  0  0  0  0  0  0  0  0
   -2.3870  -12.8440   19.2512 C   0  0  0  0  0  0  0  0  0  0  0  0
    0.5331   -7.6964   16.2751 C   0  0  0  0  0  0  0  0  0  0  0  0
   -0.6740  -10.8737   18.0482 C   0  0  0  0  0  0  0  0  0  0  0  0
    5.6751  -10.5870   29.7637 O   0  0  0  0  0  0  0  0  0  0  0  0
    1.7612   -5.6483   26.7172 C   0  0  0  0  0  0  0  0  0  0  0  0
    0.2221   -9.8326   17.4055 C   0  0  0  0  0  0  0  0  0  0  0  0
    4.3850   -9.0730   28.6745 C   0  0  0  0  0  0  0  0  0  0  0  0
  1  7  4  0
  1 22  4  0
  2 17  4  0
  2 20  4  0
  2 28  4  0
  3  6  1  0
  3 19  1  0
  4 19  1  0
  4 26  1  0
  5 17  4  0
  5 18  4  0
  6 20  1  0
  6 26  1  0
  7 24  4  0
  8 15  4  0
  8 24  4  0
  9 14  4  0
  9 21  4  0
 10 12  4  0
 10 27  4  0
 11 12  4  0
 11 23  4  0
 13 23  4  0
 13 27  4  0
 14 20  4  0
 15 22  4  0
 16 18  4  0
 16 25  2  0
 16 28  4  0
 21 28  4  0
 24 27  1  0
M  END
$$$$

 Created by Python create_sdf_string function

 28 31  0  0  0  0  0  0  0  0999 V2000
   -1.0054  -13.0622   19.1198 C   0  0  0  0  0  0  0  0  0  0  0  0
    3.1478   -8.5360   28.5161 C   0  0  0  0  0  0  0  0  0  0  0  0
    0.5798   -7.1906   27.9330 C   0  0  0  0  0  0  0  0  0  0  0  0
    0.3978   -5.1561   26.6955 C   0  0  0  0  0  0  0  0  0  0  0  0
    2.3063  -10.0533   30.0125 C   0  0  0  0  0  0  0  0  0  0  0  0
    1.8591   -6.8254   27.4685 N   0  0  0  0  0  0  0  0  0  0  0  0
   -0.2167  -12.1055   18.5568 C   0  0  0  0  0  0  0  0  0  0  0  0
   -2.0661  -10.6994   18.1916 C   0  0  0  0  0  0  0  0  0  0  0  0
    5.2703   -7.5691   27.1123 C   0  0  0  0  0  0  0  0  0  0  0  0
    1.6204   -9.9887   17.2935 C   0  0  0  0  0  0  0  0  0  0  0  0
    1.8931   -7.9265   16.2047 C   0  0  0  0  0  0  0  0  0  0  0  0
    2.4396   -9.0801   16.7132 C   0  0  0  0  0  0  0  0  0  0  0  0
   -0.2575   -8.6234   16.8582 C   0  0  0  0  0  0  0  0  0  0  0  0
    4.0614   -7.0367   27.0106 N   0  0  0  0  0  0  0  0  0  0  0  0
   -2.9133  -11.6279   18.7578 C   0  0  0  0  0  0  0  0  0  0  0  0
    4.5688  -10.1291   29.5758 C   0  0  0  0  0  0  0  0  0  0  0  0
    2.1008   -9.0410   29.1852 N   0  0  0  0  0  0  0  0  0  0  0  0
    3.4829  -10.5697   30.2091 N   0  0  0  0  0  0  0  0  0  0  0  0
   -0.3363   -6.1172   27.5628 C   0  0  0  0  0  0  0  0  0  0  0  0
    3.0331   -7.4400   27.6362 C   0  0  0  0  0  0  0  0  0  0  0  0
    5.4553   -8.5933   27.9644 C   0  0  0  0  0  0  0  0  0  0  0  0
   -2.3870  -12.8440   19.2512 C   0  0  0  0  0  0  0  0  0  0  0  0
    0.5331   -7.6964   16.2751 C   0  0  0  0  0  0  0  0  0  0  0  0
   -0.6740  -10.8737   18.0482 C   0  0  0  0  0  0  0  0  0  0  0  0
    5.6751  -10.5870   29.7637 O   0  0  0  0  0  0  0  0  0  0  0  0
    1.7612   -5.6483   26.7172 C   0  0  0  0  0  0  0  0  0  0  0  0
    0.2221   -9.8326   17.4055 C   0  0  0  0  0  0  0  0  0  0  0  0
    4.3850   -9.0730   28.6745 C   0  0  0  0  0  0  0  0  0  0  0  0
  1  7  4  0
  1 22  4  0
  2 17  4  0
  2 20  4  0
  2 28  4  0
  3  6  1  0
  3 19  1  0
  4 19  1  0
  4 26  1  0
  5 17  4  0
  5 18  4  0
  6 20  1  0
  6 26  1  0
  7 24  4  0
  8 15  4  0
  8 24  4  0
  9 14  4  0
  9 21  4  0
 10 12  4  0
 10 27  4  0
 11 12  4  0
 11 23  4  0
 13 23  4  0
 13 27  4  0
 14 20  4  0
 15 22  4  0
 16 18  4  0
 16 25  2  0
 16 28  4  0
 21 28  4  0
 24 27  1  0
M  END
$$$$

 Created by Python create_sdf_string function

 28 31  0  0  0  0  0  0  0  0999 V2000
   -1.0054  -13.0622   19.1198 C   0  0  0  0  0  0  0  0  0  0  0  0
    3.1478   -8.5360   28.5161 C   0  0  0  0  0  0  0  0  0  0  0  0
    0.5798   -7.1906   27.9330 C   0  0  0  0  0  0  0  0  0  0  0  0
    0.3978   -5.1561   26.6955 C   0  0  0  0  0  0  0  0  0  0  0  0
    2.3063  -10.0533   30.0125 C   0  0  0  0  0  0  0  0  0  0  0  0
    1.8591   -6.8254   27.4685 N   0  0  0  0  0  0  0  0  0  0  0  0
   -0.2167  -12.1055   18.5568 C   0  0  0  0  0  0  0  0  0  0  0  0
   -2.0661  -10.6994   18.1916 C   0  0  0  0  0  0  0  0  0  0  0  0
    5.2703   -7.5691   27.1123 C   0  0  0  0  0  0  0  0  0  0  0  0
    1.6204   -9.9887   17.2935 C   0  0  0  0  0  0  0  0  0  0  0  0
    1.8931   -7.9265   16.2047 C   0  0  0  0  0  0  0  0  0  0  0  0
    2.4396   -9.0801   16.7132 C   0  0  0  0  0  0  0  0  0  0  0  0
   -0.2575   -8.6234   16.8582 C   0  0  0  0  0  0  0  0  0  0  0  0
    4.0614   -7.0367   27.0106 N   0  0  0  0  0  0  0  0  0  0  0  0
   -2.9133  -11.6279   18.7578 C   0  0  0  0  0  0  0  0  0  0  0  0
    4.5688  -10.1291   29.5758 C   0  0  0  0  0  0  0  0  0  0  0  0
    2.1008   -9.0410   29.1852 N   0  0  0  0  0  0  0  0  0  0  0  0
    3.4829  -10.5697   30.2091 N   0  0  0  0  0  0  0  0  0  0  0  0
   -0.3363   -6.1172   27.5628 C   0  0  0  0  0  0  0  0  0  0  0  0
    3.0331   -7.4400   27.6362 C   0  0  0  0  0  0  0  0  0  0  0  0
    5.4553   -8.5933   27.9644 C   0  0  0  0  0  0  0  0  0  0  0  0
   -2.3870  -12.8440   19.2512 C   0  0  0  0  0  0  0  0  0  0  0  0
    0.5331   -7.6964   16.2751 C   0  0  0  0  0  0  0  0  0  0  0  0
   -0.6740  -10.8737   18.0482 C   0  0  0  0  0  0  0  0  0  0  0  0
    5.6751  -10.5870   29.7637 O   0  0  0  0  0  0  0  0  0  0  0  0
    1.7612   -5.6483   26.7172 C   0  0  0  0  0  0  0  0  0  0  0  0
    0.2221   -9.8326   17.4055 C   0  0  0  0  0  0  0  0  0  0  0  0
    4.3850   -9.0730   28.6745 C   0  0  0  0  0  0  0  0  0  0  0  0
  1  7  4  0
  1 22  4  0
  2 17  4  0
  2 20  4  0
  2 28  4  0
  3  6  1  0
  3 19  1  0
  4 19  1  0
  4 26  1  0
  5 17  4  0
  5 18  4  0
  6 20  1  0
  6 26  1  0
  7 24  4  0
  8 15  4  0
  8 24  4  0
  9 14  4  0
  9 21  4  0
 10 12  4  0
 10 27  4  0
 11 12  4  0
 11 23  4  0
 13 23  4  0
 13 27  4  0
 14 20  4  0
 15 22  4  0
 16 18  4  0
 16 25  2  0
 16 28  4  0
 21 28  4  0
 24 27  1  0
M  END
$$$$

 Created by Python create_sdf_string function

 28 31  0  0  0  0  0  0  0  0999 V2000
   -1.0054  -13.0622   19.1198 C   0  0  0  0  0  0  0  0  0  0  0  0
    3.1478   -8.5360   28.5161 C   0  0  0  0  0  0  0  0  0  0  0  0
    0.5798   -7.1906   27.9330 C   0  0  0  0  0  0  0  0  0  0  0  0
    0.3978   -5.1561   26.6955 C   0  0  0  0  0  0  0  0  0  0  0  0
    2.3063  -10.0533   30.0125 C   0  0  0  0  0  0  0  0  0  0  0  0
    1.8591   -6.8254   27.4685 N   0  0  0  0  0  0  0  0  0  0  0  0
   -0.2167  -12.1055   18.5568 C   0  0  0  0  0  0  0  0  0  0  0  0
   -2.0661  -10.6994   18.1916 C   0  0  0  0  0  0  0  0  0  0  0  0
    5.2703   -7.5691   27.1123 C   0  0  0  0  0  0  0  0  0  0  0  0
    1.6204   -9.9887   17.2935 C   0  0  0  0  0  0  0  0  0  0  0  0
    1.8931   -7.9265   16.2047 C   0  0  0  0  0  0  0  0  0  0  0  0
    2.4396   -9.0801   16.7132 C   0  0  0  0  0  0  0  0  0  0  0  0
   -0.2575   -8.6234   16.8582 C   0  0  0  0  0  0  0  0  0  0  0  0
    4.0614   -7.0367   27.0106 N   0  0  0  0  0  0  0  0  0  0  0  0
   -2.9133  -11.6279   18.7578 C   0  0  0  0  0  0  0  0  0  0  0  0
    4.5688  -10.1291   29.5758 C   0  0  0  0  0  0  0  0  0  0  0  0
    2.1008   -9.0410   29.1852 N   0  0  0  0  0  0  0  0  0  0  0  0
    3.4829  -10.5697   30.2091 N   0  0  0  0  0  0  0  0  0  0  0  0
   -0.3363   -6.1172   27.5628 C   0  0  0  0  0  0  0  0  0  0  0  0
    3.0331   -7.4400   27.6362 C   0  0  0  0  0  0  0  0  0  0  0  0
    5.4553   -8.5933   27.9644 C   0  0  0  0  0  0  0  0  0  0  0  0
   -2.3870  -12.8440   19.2512 C   0  0  0  0  0  0  0  0  0  0  0  0
    0.5331   -7.6964   16.2751 C   0  0  0  0  0  0  0  0  0  0  0  0
   -0.6740  -10.8737   18.0482 C   0  0  0  0  0  0  0  0  0  0  0  0
    5.6751  -10.5870   29.7637 O   0  0  0  0  0  0  0  0  0  0  0  0
    1.7612   -5.6483   26.7172 C   0  0  0  0  0  0  0  0  0  0  0  0
    0.2221   -9.8326   17.4055 C   0  0  0  0  0  0  0  0  0  0  0  0
    4.3850   -9.0730   28.6745 C   0  0  0  0  0  0  0  0  0  0  0  0
  1  7  4  0
  1 22  4  0
  2 17  4  0
  2 20  4  0
  2 28  4  0
  3  6  1  0
  3 19  1  0
  4 19  1  0
  4 26  1  0
  5 17  4  0
  5 18  4  0
  6 20  1  0
  6 26  1  0
  7 24  4  0
  8 15  4  0
  8 24  4  0
  9 14  4  0
  9 21  4  0
 10 12  4  0
 10 27  4  0
 11 12  4  0
 11 23  4  0
 13 23  4  0
 13 27  4  0
 14 20  4  0
 15 22  4  0
 16 18  4  0
 16 25  2  0
 16 28  4  0
 21 28  4  0
 24 27  1  0
M  END
$$$$

 Created by Python create_sdf_string function

 28 31  0  0  0  0  0  0  0  0999 V2000
   -1.0054  -13.0622   19.1198 C   0  0  0  0  0  0  0  0  0  0  0  0
    3.1478   -8.5360   28.5161 C   0  0  0  0  0  0  0  0  0  0  0  0
    0.5798   -7.1906   27.9330 C   0  0  0  0  0  0  0  0  0  0  0  0
    0.3978   -5.1561   26.6955 C   0  0  0  0  0  0  0  0  0  0  0  0
    2.3063  -10.0533   30.0125 C   0  0  0  0  0  0  0  0  0  0  0  0
    1.8591   -6.8254   27.4685 N   0  0  0  0  0  0  0  0  0  0  0  0
   -0.2167  -12.1055   18.5568 C   0  0  0  0  0  0  0  0  0  0  0  0
   -2.0661  -10.6994   18.1916 C   0  0  0  0  0  0  0  0  0  0  0  0
    5.2703   -7.5691   27.1123 C   0  0  0  0  0  0  0  0  0  0  0  0
    1.6204   -9.9887   17.2935 C   0  0  0  0  0  0  0  0  0  0  0  0
    1.8931   -7.9265   16.2047 C   0  0  0  0  0  0  0  0  0  0  0  0
    2.4396   -9.0801   16.7132 C   0  0  0  0  0  0  0  0  0  0  0  0
   -0.2575   -8.6234   16.8582 C   0  0  0  0  0  0  0  0  0  0  0  0
    4.0614   -7.0367   27.0106 N   0  0  0  0  0  0  0  0  0  0  0  0
   -2.9133  -11.6279   18.7578 C   0  0  0  0  0  0  0  0  0  0  0  0
    4.5688  -10.1291   29.5758 C   0  0  0  0  0  0  0  0  0  0  0  0
    2.1008   -9.0410   29.1852 N   0  0  0  0  0  0  0  0  0  0  0  0
    3.4829  -10.5697   30.2091 N   0  0  0  0  0  0  0  0  0  0  0  0
   -0.3363   -6.1172   27.5628 C   0  0  0  0  0  0  0  0  0  0  0  0
    3.0331   -7.4400   27.6362 C   0  0  0  0  0  0  0  0  0  0  0  0
    5.4553   -8.5933   27.9644 C   0  0  0  0  0  0  0  0  0  0  0  0
   -2.3870  -12.8440   19.2512 C   0  0  0  0  0  0  0  0  0  0  0  0
    0.5331   -7.6964   16.2751 C   0  0  0  0  0  0  0  0  0  0  0  0
   -0.6740  -10.8737   18.0482 C   0  0  0  0  0  0  0  0  0  0  0  0
    5.6751  -10.5870   29.7637 O   0  0  0  0  0  0  0  0  0  0  0  0
    1.7612   -5.6483   26.7172 C   0  0  0  0  0  0  0  0  0  0  0  0
    0.2221   -9.8326   17.4055 C   0  0  0  0  0  0  0  0  0  0  0  0
    4.3850   -9.0730   28.6745 C   0  0  0  0  0  0  0  0  0  0  0  0
  1  7  4  0
  1 22  4  0
  2 17  4  0
  2 20  4  0
  2 28  4  0
  3  6  1  0
  3 19  1  0
  4 19  1  0
  4 26  1  0
  5 17  4  0
  5 18  4  0
  6 20  1  0
  6 26  1  0
  7 24  4  0
  8 15  4  0
  8 24  4  0
  9 14  4  0
  9 21  4  0
 10 12  4  0
 10 27  4  0
 11 12  4  0
 11 23  4  0
 13 23  4  0
 13 27  4  0
 14 20  4  0
 15 22  4  0
 16 18  4  0
 16 25  2  0
 16 28  4  0
 21 28  4  0
 24 27  1  0
M  END
$$$$

 Created by Python create_sdf_string function

 28 31  0  0  0  0  0  0  0  0999 V2000
   -1.0054  -13.0622   19.1198 C   0  0  0  0  0  0  0  0  0  0  0  0
    3.1478   -8.5360   28.5161 C   0  0  0  0  0  0  0  0  0  0  0  0
    0.5798   -7.1906   27.9330 C   0  0  0  0  0  0  0  0  0  0  0  0
    0.3978   -5.1561   26.6955 C   0  0  0  0  0  0  0  0  0  0  0  0
    2.3063  -10.0533   30.0125 C   0  0  0  0  0  0  0  0  0  0  0  0
    1.8591   -6.8254   27.4685 N   0  0  0  0  0  0  0  0  0  0  0  0
   -0.2167  -12.1055   18.5568 C   0  0  0  0  0  0  0  0  0  0  0  0
   -2.0661  -10.6994   18.1916 C   0  0  0  0  0  0  0  0  0  0  0  0
    5.2703   -7.5691   27.1123 C   0  0  0  0  0  0  0  0  0  0  0  0
    1.6204   -9.9887   17.2935 C   0  0  0  0  0  0  0  0  0  0  0  0
    1.8931   -7.9265   16.2047 C   0  0  0  0  0  0  0  0  0  0  0  0
    2.4396   -9.0801   16.7132 C   0  0  0  0  0  0  0  0  0  0  0  0
   -0.2575   -8.6234   16.8582 C   0  0  0  0  0  0  0  0  0  0  0  0
    4.0614   -7.0367   27.0106 N   0  0  0  0  0  0  0  0  0  0  0  0
   -2.9133  -11.6279   18.7578 C   0  0  0  0  0  0  0  0  0  0  0  0
    4.5688  -10.1291   29.5758 C   0  0  0  0  0  0  0  0  0  0  0  0
    2.1008   -9.0410   29.1852 N   0  0  0  0  0  0  0  0  0  0  0  0
    3.4829  -10.5697   30.2091 N   0  0  0  0  0  0  0  0  0  0  0  0
   -0.3363   -6.1172   27.5628 C   0  0  0  0  0  0  0  0  0  0  0  0
    3.0331   -7.4400   27.6362 C   0  0  0  0  0  0  0  0  0  0  0  0
    5.4553   -8.5933   27.9644 C   0  0  0  0  0  0  0  0  0  0  0  0
   -2.3870  -12.8440   19.2512 C   0  0  0  0  0  0  0  0  0  0  0  0
    0.5331   -7.6964   16.2751 C   0  0  0  0  0  0  0  0  0  0  0  0
   -0.6740  -10.8737   18.0482 C   0  0  0  0  0  0  0  0  0  0  0  0
    5.6751  -10.5870   29.7637 O   0  0  0  0  0  0  0  0  0  0  0  0
    1.7612   -5.6483   26.7172 C   0  0  0  0  0  0  0  0  0  0  0  0
    0.2221   -9.8326   17.4055 C   0  0  0  0  0  0  0  0  0  0  0  0
    4.3850   -9.0730   28.6745 C   0  0  0  0  0  0  0  0  0  0  0  0
  1  7  4  0
  1 22  4  0
  2 17  4  0
  2 20  4  0
  2 28  4  0
  3  6  1  0
  3 19  1  0
  4 19  1  0
  4 26  1  0
  5 17  4  0
  5 18  4  0
  6 20  1  0
  6 26  1  0
  7 24  4  0
  8 15  4  0
  8 24  4  0
  9 14  4  0
  9 21  4  0
 10 12  4  0
 10 27  4  0
 11 12  4  0
 11 23  4  0
 13 23  4  0
 13 27  4  0
 14 20  4  0
 15 22  4  0
 16 18  4  0
 16 25  2  0
 16 28  4  0
 21 28  4  0
 24 27  1  0
M  END
$$$$

 Created by Python create_sdf_string function

 28 31  0  0  0  0  0  0  0  0999 V2000
   -1.0054  -13.0622   19.1198 C   0  0  0  0  0  0  0  0  0  0  0  0
    3.1478   -8.5360   28.5161 C   0  0  0  0  0  0  0  0  0  0  0  0
    0.5798   -7.1906   27.9330 C   0  0  0  0  0  0  0  0  0  0  0  0
    0.3978   -5.1561   26.6955 C   0  0  0  0  0  0  0  0  0  0  0  0
    2.3063  -10.0533   30.0125 C   0  0  0  0  0  0  0  0  0  0  0  0
    1.8591   -6.8254   27.4685 N   0  0  0  0  0  0  0  0  0  0  0  0
   -0.2167  -12.1055   18.5568 C   0  0  0  0  0  0  0  0  0  0  0  0
   -2.0661  -10.6994   18.1916 C   0  0  0  0  0  0  0  0  0  0  0  0
    5.2703   -7.5691   27.1123 C   0  0  0  0  0  0  0  0  0  0  0  0
    1.6204   -9.9887   17.2935 C   0  0  0  0  0  0  0  0  0  0  0  0
    1.8931   -7.9265   16.2047 C   0  0  0  0  0  0  0  0  0  0  0  0
    2.4396   -9.0801   16.7132 C   0  0  0  0  0  0  0  0  0  0  0  0
   -0.2575   -8.6234   16.8582 C   0  0  0  0  0  0  0  0  0  0  0  0
    4.0614   -7.0367   27.0106 N   0  0  0  0  0  0  0  0  0  0  0  0
   -2.9133  -11.6279   18.7578 C   0  0  0  0  0  0  0  0  0  0  0  0
    4.5688  -10.1291   29.5758 C   0  0  0  0  0  0  0  0  0  0  0  0
    2.1008   -9.0410   29.1852 N   0  0  0  0  0  0  0  0  0  0  0  0
    3.4829  -10.5697   30.2091 N   0  0  0  0  0  0  0  0  0  0  0  0
   -0.3363   -6.1172   27.5628 C   0  0  0  0  0  0  0  0  0  0  0  0
    3.0331   -7.4400   27.6362 C   0  0  0  0  0  0  0  0  0  0  0  0
    5.4553   -8.5933   27.9644 C   0  0  0  0  0  0  0  0  0  0  0  0
   -2.3870  -12.8440   19.2512 C   0  0  0  0  0  0  0  0  0  0  0  0
    0.5331   -7.6964   16.2751 C   0  0  0  0  0  0  0  0  0  0  0  0
   -0.6740  -10.8737   18.0482 C   0  0  0  0  0  0  0  0  0  0  0  0
    5.6751  -10.5870   29.7637 O   0  0  0  0  0  0  0  0  0  0  0  0
    1.7612   -5.6483   26.7172 C   0  0  0  0  0  0  0  0  0  0  0  0
    0.2221   -9.8326   17.4055 C   0  0  0  0  0  0  0  0  0  0  0  0
    4.3850   -9.0730   28.6745 C   0  0  0  0  0  0  0  0  0  0  0  0
  1  7  4  0
  1 22  4  0
  2 17  4  0
  2 20  4  0
  2 28  4  0
  3  6  1  0
  3 19  1  0
  4 19  1  0
  4 26  1  0
  5 17  4  0
  5 18  4  0
  6 20  1  0
  6 26  1  0
  7 24  4  0
  8 15  4  0
  8 24  4  0
  9 14  4  0
  9 21  4  0
 10 12  4  0
 10 27  4  0
 11 12  4  0
 11 23  4  0
 13 23  4  0
 13 27  4  0
 14 20  4  0
 15 22  4  0
 16 18  4  0
 16 25  2  0
 16 28  4  0
 21 28  4  0
 24 27  1  0
M  END
$$$$

 Created by Python create_sdf_string function

 28 31  0  0  0  0  0  0  0  0999 V2000
   -1.0054  -13.0622   19.1198 C   0  0  0  0  0  0  0  0  0  0  0  0
    3.1478   -8.5360   28.5161 C   0  0  0  0  0  0  0  0  0  0  0  0
    0.5798   -7.1906   27.9330 C   0  0  0  0  0  0  0  0  0  0  0  0
    0.3978   -5.1561   26.6955 C   0  0  0  0  0  0  0  0  0  0  0  0
    2.3063  -10.0533   30.0125 C   0  0  0  0  0  0  0  0  0  0  0  0
    1.8591   -6.8254   27.4685 N   0  0  0  0  0  0  0  0  0  0  0  0
   -0.2167  -12.1055   18.5568 C   0  0  0  0  0  0  0  0  0  0  0  0
   -2.0661  -10.6994   18.1916 C   0  0  0  0  0  0  0  0  0  0  0  0
    5.2703   -7.5691   27.1123 C   0  0  0  0  0  0  0  0  0  0  0  0
    1.6204   -9.9887   17.2935 C   0  0  0  0  0  0  0  0  0  0  0  0
    1.8931   -7.9265   16.2047 C   0  0  0  0  0  0  0  0  0  0  0  0
    2.4396   -9.0801   16.7132 C   0  0  0  0  0  0  0  0  0  0  0  0
   -0.2575   -8.6234   16.8582 C   0  0  0  0  0  0  0  0  0  0  0  0
    4.0614   -7.0367   27.0106 N   0  0  0  0  0  0  0  0  0  0  0  0
   -2.9133  -11.6279   18.7578 C   0  0  0  0  0  0  0  0  0  0  0  0
    4.5688  -10.1291   29.5758 C   0  0  0  0  0  0  0  0  0  0  0  0
    2.1008   -9.0410   29.1852 N   0  0  0  0  0  0  0  0  0  0  0  0
    3.4829  -10.5697   30.2091 N   0  0  0  0  0  0  0  0  0  0  0  0
   -0.3363   -6.1172   27.5628 C   0  0  0  0  0  0  0  0  0  0  0  0
    3.0331   -7.4400   27.6362 C   0  0  0  0  0  0  0  0  0  0  0  0
    5.4553   -8.5933   27.9644 C   0  0  0  0  0  0  0  0  0  0  0  0
   -2.3870  -12.8440   19.2512 C   0  0  0  0  0  0  0  0  0  0  0  0
    0.5331   -7.6964   16.2751 C   0  0  0  0  0  0  0  0  0  0  0  0
   -0.6740  -10.8737   18.0482 C   0  0  0  0  0  0  0  0  0  0  0  0
    5.6751  -10.5870   29.7637 O   0  0  0  0  0  0  0  0  0  0  0  0
    1.7612   -5.6483   26.7172 C   0  0  0  0  0  0  0  0  0  0  0  0
    0.2221   -9.8326   17.4055 C   0  0  0  0  0  0  0  0  0  0  0  0
    4.3850   -9.0730   28.6745 C   0  0  0  0  0  0  0  0  0  0  0  0
  1  7  4  0
  1 22  4  0
  2 17  4  0
  2 20  4  0
  2 28  4  0
  3  6  1  0
  3 19  1  0
  4 19  1  0
  4 26  1  0
  5 17  4  0
  5 18  4  0
  6 20  1  0
  6 26  1  0
  7 24  4  0
  8 15  4  0
  8 24  4  0
  9 14  4  0
  9 21  4  0
 10 12  4  0
 10 27  4  0
 11 12  4  0
 11 23  4  0
 13 23  4  0
 13 27  4  0
 14 20  4  0
 15 22  4  0
 16 18  4  0
 16 25  2  0
 16 28  4  0
 21 28  4  0
 24 27  1  0
M  END
$$$$

 Created by Python create_sdf_string function

 28 31  0  0  0  0  0  0  0  0999 V2000
   -1.0054  -13.0622   19.1198 C   0  0  0  0  0  0  0  0  0  0  0  0
    3.1478   -8.5360   28.5161 C   0  0  0  0  0  0  0  0  0  0  0  0
    0.5798   -7.1906   27.9330 C   0  0  0  0  0  0  0  0  0  0  0  0
    0.3978   -5.1561   26.6955 C   0  0  0  0  0  0  0  0  0  0  0  0
    2.3063  -10.0533   30.0125 C   0  0  0  0  0  0  0  0  0  0  0  0
    1.8591   -6.8254   27.4685 N   0  0  0  0  0  0  0  0  0  0  0  0
   -0.2167  -12.1055   18.5568 C   0  0  0  0  0  0  0  0  0  0  0  0
   -2.0661  -10.6994   18.1916 C   0  0  0  0  0  0  0  0  0  0  0  0
    5.2703   -7.5691   27.1123 C   0  0  0  0  0  0  0  0  0  0  0  0
    1.6204   -9.9887   17.2935 C   0  0  0  0  0  0  0  0  0  0  0  0
    1.8931   -7.9265   16.2047 C   0  0  0  0  0  0  0  0  0  0  0  0
    2.4396   -9.0801   16.7132 C   0  0  0  0  0  0  0  0  0  0  0  0
   -0.2575   -8.6234   16.8582 C   0  0  0  0  0  0  0  0  0  0  0  0
    4.0614   -7.0367   27.0106 N   0  0  0  0  0  0  0  0  0  0  0  0
   -2.9133  -11.6279   18.7578 C   0  0  0  0  0  0  0  0  0  0  0  0
    4.5688  -10.1291   29.5758 C   0  0  0  0  0  0  0  0  0  0  0  0
    2.1008   -9.0410   29.1852 N   0  0  0  0  0  0  0  0  0  0  0  0
    3.4829  -10.5697   30.2091 N   0  0  0  0  0  0  0  0  0  0  0  0
   -0.3363   -6.1172   27.5628 C   0  0  0  0  0  0  0  0  0  0  0  0
    3.0331   -7.4400   27.6362 C   0  0  0  0  0  0  0  0  0  0  0  0
    5.4553   -8.5933   27.9644 C   0  0  0  0  0  0  0  0  0  0  0  0
   -2.3870  -12.8440   19.2512 C   0  0  0  0  0  0  0  0  0  0  0  0
    0.5331   -7.6964   16.2751 C   0  0  0  0  0  0  0  0  0  0  0  0
   -0.6740  -10.8737   18.0482 C   0  0  0  0  0  0  0  0  0  0  0  0
    5.6751  -10.5870   29.7637 O   0  0  0  0  0  0  0  0  0  0  0  0
    1.7612   -5.6483   26.7172 C   0  0  0  0  0  0  0  0  0  0  0  0
    0.2221   -9.8326   17.4055 C   0  0  0  0  0  0  0  0  0  0  0  0
    4.3850   -9.0730   28.6745 C   0  0  0  0  0  0  0  0  0  0  0  0
  1  7  4  0
  1 22  4  0
  2 17  4  0
  2 20  4  0
  2 28  4  0
  3  6  1  0
  3 19  1  0
  4 19  1  0
  4 26  1  0
  5 17  4  0
  5 18  4  0
  6 20  1  0
  6 26  1  0
  7 24  4  0
  8 15  4  0
  8 24  4  0
  9 14  4  0
  9 21  4  0
 10 12  4  0
 10 27  4  0
 11 12  4  0
 11 23  4  0
 13 23  4  0
 13 27  4  0
 14 20  4  0
 15 22  4  0
 16 18  4  0
 16 25  2  0
 16 28  4  0
 21 28  4  0
 24 27  1  0
M  END
$$$$

 Created by Python create_sdf_string function

 28 31  0  0  0  0  0  0  0  0999 V2000
   -1.0054  -13.0622   19.1198 C   0  0  0  0  0  0  0  0  0  0  0  0
    3.1478   -8.5360   28.5161 C   0  0  0  0  0  0  0  0  0  0  0  0
    0.5798   -7.1906   27.9330 C   0  0  0  0  0  0  0  0  0  0  0  0
    0.3978   -5.1561   26.6955 C   0  0  0  0  0  0  0  0  0  0  0  0
    2.3063  -10.0533   30.0125 C   0  0  0  0  0  0  0  0  0  0  0  0
    1.8591   -6.8254   27.4685 N   0  0  0  0  0  0  0  0  0  0  0  0
   -0.2167  -12.1055   18.5568 C   0  0  0  0  0  0  0  0  0  0  0  0
   -2.0661  -10.6994   18.1916 C   0  0  0  0  0  0  0  0  0  0  0  0
    5.2703   -7.5691   27.1123 C   0  0  0  0  0  0  0  0  0  0  0  0
    1.6204   -9.9887   17.2935 C   0  0  0  0  0  0  0  0  0  0  0  0
    1.8931   -7.9265   16.2047 C   0  0  0  0  0  0  0  0  0  0  0  0
    2.4396   -9.0801   16.7132 C   0  0  0  0  0  0  0  0  0  0  0  0
   -0.2575   -8.6234   16.8582 C   0  0  0  0  0  0  0  0  0  0  0  0
    4.0614   -7.0367   27.0106 N   0  0  0  0  0  0  0  0  0  0  0  0
   -2.9133  -11.6279   18.7578 C   0  0  0  0  0  0  0  0  0  0  0  0
    4.5688  -10.1291   29.5758 C   0  0  0  0  0  0  0  0  0  0  0  0
    2.1008   -9.0410   29.1852 N   0  0  0  0  0  0  0  0  0  0  0  0
    3.4829  -10.5697   30.2091 N   0  0  0  0  0  0  0  0  0  0  0  0
   -0.3363   -6.1172   27.5628 C   0  0  0  0  0  0  0  0  0  0  0  0
    3.0331   -7.4400   27.6362 C   0  0  0  0  0  0  0  0  0  0  0  0
    5.4553   -8.5933   27.9644 C   0  0  0  0  0  0  0  0  0  0  0  0
   -2.3870  -12.8440   19.2512 C   0  0  0  0  0  0  0  0  0  0  0  0
    0.5331   -7.6964   16.2751 C   0  0  0  0  0  0  0  0  0  0  0  0
   -0.6740  -10.8737   18.0482 C   0  0  0  0  0  0  0  0  0  0  0  0
    5.6751  -10.5870   29.7637 O   0  0  0  0  0  0  0  0  0  0  0  0
    1.7612   -5.6483   26.7172 C   0  0  0  0  0  0  0  0  0  0  0  0
    0.2221   -9.8326   17.4055 C   0  0  0  0  0  0  0  0  0  0  0  0
    4.3850   -9.0730   28.6745 C   0  0  0  0  0  0  0  0  0  0  0  0
  1  7  4  0
  1 22  4  0
  2 17  4  0
  2 20  4  0
  2 28  4  0
  3  6  1  0
  3 19  1  0
  4 19  1  0
  4 26  1  0
  5 17  4  0
  5 18  4  0
  6 20  1  0
  6 26  1  0
  7 24  4  0
  8 15  4  0
  8 24  4  0
  9 14  4  0
  9 21  4  0
 10 12  4  0
 10 27  4  0
 11 12  4  0
 11 23  4  0
 13 23  4  0
 13 27  4  0
 14 20  4  0
 15 22  4  0
 16 18  4  0
 16 25  2  0
 16 28  4  0
 21 28  4  0
 24 27  1  0
M  END
$$$$

 Created by Python create_sdf_string function

 28 31  0  0  0  0  0  0  0  0999 V2000
   -1.0054  -13.0622   19.1198 C   0  0  0  0  0  0  0  0  0  0  0  0
    3.1478   -8.5360   28.5161 C   0  0  0  0  0  0  0  0  0  0  0  0
    0.5798   -7.1906   27.9330 C   0  0  0  0  0  0  0  0  0  0  0  0
    0.3978   -5.1561   26.6955 C   0  0  0  0  0  0  0  0  0  0  0  0
    2.3063  -10.0533   30.0125 C   0  0  0  0  0  0  0  0  0  0  0  0
    1.8591   -6.8254   27.4685 N   0  0  0  0  0  0  0  0  0  0  0  0
   -0.2167  -12.1055   18.5568 C   0  0  0  0  0  0  0  0  0  0  0  0
   -2.0661  -10.6994   18.1916 C   0  0  0  0  0  0  0  0  0  0  0  0
    5.2703   -7.5691   27.1123 C   0  0  0  0  0  0  0  0  0  0  0  0
    1.6204   -9.9887   17.2935 C   0  0  0  0  0  0  0  0  0  0  0  0
    1.8931   -7.9265   16.2047 C   0  0  0  0  0  0  0  0  0  0  0  0
    2.4396   -9.0801   16.7132 C   0  0  0  0  0  0  0  0  0  0  0  0
   -0.2575   -8.6234   16.8582 C   0  0  0  0  0  0  0  0  0  0  0  0
    4.0614   -7.0367   27.0106 N   0  0  0  0  0  0  0  0  0  0  0  0
   -2.9133  -11.6279   18.7578 C   0  0  0  0  0  0  0  0  0  0  0  0
    4.5688  -10.1291   29.5758 C   0  0  0  0  0  0  0  0  0  0  0  0
    2.1008   -9.0410   29.1852 N   0  0  0  0  0  0  0  0  0  0  0  0
    3.4829  -10.5697   30.2091 N   0  0  0  0  0  0  0  0  0  0  0  0
   -0.3363   -6.1172   27.5628 C   0  0  0  0  0  0  0  0  0  0  0  0
    3.0331   -7.4400   27.6362 C   0  0  0  0  0  0  0  0  0  0  0  0
    5.4553   -8.5933   27.9644 C   0  0  0  0  0  0  0  0  0  0  0  0
   -2.3870  -12.8440   19.2512 C   0  0  0  0  0  0  0  0  0  0  0  0
    0.5331   -7.6964   16.2751 C   0  0  0  0  0  0  0  0  0  0  0  0
   -0.6740  -10.8737   18.0482 C   0  0  0  0  0  0  0  0  0  0  0  0
    5.6751  -10.5870   29.7637 O   0  0  0  0  0  0  0  0  0  0  0  0
    1.7612   -5.6483   26.7172 C   0  0  0  0  0  0  0  0  0  0  0  0
    0.2221   -9.8326   17.4055 C   0  0  0  0  0  0  0  0  0  0  0  0
    4.3850   -9.0730   28.6745 C   0  0  0  0  0  0  0  0  0  0  0  0
  1  7  4  0
  1 22  4  0
  2 17  4  0
  2 20  4  0
  2 28  4  0
  3  6  1  0
  3 19  1  0
  4 19  1  0
  4 26  1  0
  5 17  4  0
  5 18  4  0
  6 20  1  0
  6 26  1  0
  7 24  4  0
  8 15  4  0
  8 24  4  0
  9 14  4  0
  9 21  4  0
 10 12  4  0
 10 27  4  0
 11 12  4  0
 11 23  4  0
 13 23  4  0
 13 27  4  0
 14 20  4  0
 15 22  4  0
 16 18  4  0
 16 25  2  0
 16 28  4  0
 21 28  4  0
 24 27  1  0
M  END
$$$$

 Created by Python create_sdf_string function

 28 31  0  0  0  0  0  0  0  0999 V2000
   -1.0054  -13.0622   19.1198 C   0  0  0  0  0  0  0  0  0  0  0  0
    3.1478   -8.5360   28.5161 C   0  0  0  0  0  0  0  0  0  0  0  0
    0.5798   -7.1906   27.9330 C   0  0  0  0  0  0  0  0  0  0  0  0
    0.3978   -5.1561   26.6955 C   0  0  0  0  0  0  0  0  0  0  0  0
    2.3063  -10.0533   30.0125 C   0  0  0  0  0  0  0  0  0  0  0  0
    1.8591   -6.8254   27.4685 N   0  0  0  0  0  0  0  0  0  0  0  0
   -0.2167  -12.1055   18.5568 C   0  0  0  0  0  0  0  0  0  0  0  0
   -2.0661  -10.6994   18.1916 C   0  0  0  0  0  0  0  0  0  0  0  0
    5.2703   -7.5691   27.1123 C   0  0  0  0  0  0  0  0  0  0  0  0
    1.6204   -9.9887   17.2935 C   0  0  0  0  0  0  0  0  0  0  0  0
    1.8931   -7.9265   16.2047 C   0  0  0  0  0  0  0  0  0  0  0  0
    2.4396   -9.0801   16.7132 C   0  0  0  0  0  0  0  0  0  0  0  0
   -0.2575   -8.6234   16.8582 C   0  0  0  0  0  0  0  0  0  0  0  0
    4.0614   -7.0367   27.0106 N   0  0  0  0  0  0  0  0  0  0  0  0
   -2.9133  -11.6279   18.7578 C   0  0  0  0  0  0  0  0  0  0  0  0
    4.5688  -10.1291   29.5758 C   0  0  0  0  0  0  0  0  0  0  0  0
    2.1008   -9.0410   29.1852 N   0  0  0  0  0  0  0  0  0  0  0  0
    3.4829  -10.5697   30.2091 N   0  0  0  0  0  0  0  0  0  0  0  0
   -0.3363   -6.1172   27.5628 C   0  0  0  0  0  0  0  0  0  0  0  0
    3.0331   -7.4400   27.6362 C   0  0  0  0  0  0  0  0  0  0  0  0
    5.4553   -8.5933   27.9644 C   0  0  0  0  0  0  0  0  0  0  0  0
   -2.3870  -12.8440   19.2512 C   0  0  0  0  0  0  0  0  0  0  0  0
    0.5331   -7.6964   16.2751 C   0  0  0  0  0  0  0  0  0  0  0  0
   -0.6740  -10.8737   18.0482 C   0  0  0  0  0  0  0  0  0  0  0  0
    5.6751  -10.5870   29.7637 O   0  0  0  0  0  0  0  0  0  0  0  0
    1.7612   -5.6483   26.7172 C   0  0  0  0  0  0  0  0  0  0  0  0
    0.2221   -9.8326   17.4055 C   0  0  0  0  0  0  0  0  0  0  0  0
    4.3850   -9.0730   28.6745 C   0  0  0  0  0  0  0  0  0  0  0  0
  1  7  4  0
  1 22  4  0
  2 17  4  0
  2 20  4  0
  2 28  4  0
  3  6  1  0
  3 19  1  0
  4 19  1  0
  4 26  1  0
  5 17  4  0
  5 18  4  0
  6 20  1  0
  6 26  1  0
  7 24  4  0
  8 15  4  0
  8 24  4  0
  9 14  4  0
  9 21  4  0
 10 12  4  0
 10 27  4  0
 11 12  4  0
 11 23  4  0
 13 23  4  0
 13 27  4  0
 14 20  4  0
 15 22  4  0
 16 18  4  0
 16 25  2  0
 16 28  4  0
 21 28  4  0
 24 27  1  0
M  END
$$$$

 Created by Python create_sdf_string function

 28 31  0  0  0  0  0  0  0  0999 V2000
   -1.0054  -13.0622   19.1198 C   0  0  0  0  0  0  0  0  0  0  0  0
    3.1478   -8.5360   28.5161 C   0  0  0  0  0  0  0  0  0  0  0  0
    0.5798   -7.1906   27.9330 C   0  0  0  0  0  0  0  0  0  0  0  0
    0.3978   -5.1561   26.6955 C   0  0  0  0  0  0  0  0  0  0  0  0
    2.3063  -10.0533   30.0125 C   0  0  0  0  0  0  0  0  0  0  0  0
    1.8591   -6.8254   27.4685 N   0  0  0  0  0  0  0  0  0  0  0  0
   -0.2167  -12.1055   18.5568 C   0  0  0  0  0  0  0  0  0  0  0  0
   -2.0661  -10.6994   18.1916 C   0  0  0  0  0  0  0  0  0  0  0  0
    5.2703   -7.5691   27.1123 C   0  0  0  0  0  0  0  0  0  0  0  0
    1.6204   -9.9887   17.2935 C   0  0  0  0  0  0  0  0  0  0  0  0
    1.8931   -7.9265   16.2047 C   0  0  0  0  0  0  0  0  0  0  0  0
    2.4396   -9.0801   16.7132 C   0  0  0  0  0  0  0  0  0  0  0  0
   -0.2575   -8.6234   16.8582 C   0  0  0  0  0  0  0  0  0  0  0  0
    4.0614   -7.0367   27.0106 N   0  0  0  0  0  0  0  0  0  0  0  0
   -2.9133  -11.6279   18.7578 C   0  0  0  0  0  0  0  0  0  0  0  0
    4.5688  -10.1291   29.5758 C   0  0  0  0  0  0  0  0  0  0  0  0
    2.1008   -9.0410   29.1852 N   0  0  0  0  0  0  0  0  0  0  0  0
    3.4829  -10.5697   30.2091 N   0  0  0  0  0  0  0  0  0  0  0  0
   -0.3363   -6.1172   27.5628 C   0  0  0  0  0  0  0  0  0  0  0  0
    3.0331   -7.4400   27.6362 C   0  0  0  0  0  0  0  0  0  0  0  0
    5.4553   -8.5933   27.9644 C   0  0  0  0  0  0  0  0  0  0  0  0
   -2.3870  -12.8440   19.2512 C   0  0  0  0  0  0  0  0  0  0  0  0
    0.5331   -7.6964   16.2751 C   0  0  0  0  0  0  0  0  0  0  0  0
   -0.6740  -10.8737   18.0482 C   0  0  0  0  0  0  0  0  0  0  0  0
    5.6751  -10.5870   29.7637 O   0  0  0  0  0  0  0  0  0  0  0  0
    1.7612   -5.6483   26.7172 C   0  0  0  0  0  0  0  0  0  0  0  0
    0.2221   -9.8326   17.4055 C   0  0  0  0  0  0  0  0  0  0  0  0
    4.3850   -9.0730   28.6745 C   0  0  0  0  0  0  0  0  0  0  0  0
  1  7  4  0
  1 22  4  0
  2 17  4  0
  2 20  4  0
  2 28  4  0
  3  6  1  0
  3 19  1  0
  4 19  1  0
  4 26  1  0
  5 17  4  0
  5 18  4  0
  6 20  1  0
  6 26  1  0
  7 24  4  0
  8 15  4  0
  8 24  4  0
  9 14  4  0
  9 21  4  0
 10 12  4  0
 10 27  4  0
 11 12  4  0
 11 23  4  0
 13 23  4  0
 13 27  4  0
 14 20  4  0
 15 22  4  0
 16 18  4  0
 16 25  2  0
 16 28  4  0
 21 28  4  0
 24 27  1  0
M  END
$$$$

 Created by Python create_sdf_string function

 28 31  0  0  0  0  0  0  0  0999 V2000
   -1.0054  -13.0622   19.1198 C   0  0  0  0  0  0  0  0  0  0  0  0
    3.1478   -8.5360   28.5161 C   0  0  0  0  0  0  0  0  0  0  0  0
    0.5798   -7.1906   27.9330 C   0  0  0  0  0  0  0  0  0  0  0  0
    0.3978   -5.1561   26.6955 C   0  0  0  0  0  0  0  0  0  0  0  0
    2.3063  -10.0533   30.0125 C   0  0  0  0  0  0  0  0  0  0  0  0
    1.8591   -6.8254   27.4685 N   0  0  0  0  0  0  0  0  0  0  0  0
   -0.2167  -12.1055   18.5568 C   0  0  0  0  0  0  0  0  0  0  0  0
   -2.0661  -10.6994   18.1916 C   0  0  0  0  0  0  0  0  0  0  0  0
    5.2703   -7.5691   27.1123 C   0  0  0  0  0  0  0  0  0  0  0  0
    1.6204   -9.9887   17.2935 C   0  0  0  0  0  0  0  0  0  0  0  0
    1.8931   -7.9265   16.2047 C   0  0  0  0  0  0  0  0  0  0  0  0
    2.4396   -9.0801   16.7132 C   0  0  0  0  0  0  0  0  0  0  0  0
   -0.2575   -8.6234   16.8582 C   0  0  0  0  0  0  0  0  0  0  0  0
    4.0614   -7.0367   27.0106 N   0  0  0  0  0  0  0  0  0  0  0  0
   -2.9133  -11.6279   18.7578 C   0  0  0  0  0  0  0  0  0  0  0  0
    4.5688  -10.1291   29.5758 C   0  0  0  0  0  0  0  0  0  0  0  0
    2.1008   -9.0410   29.1852 N   0  0  0  0  0  0  0  0  0  0  0  0
    3.4829  -10.5697   30.2091 N   0  0  0  0  0  0  0  0  0  0  0  0
   -0.3363   -6.1172   27.5628 C   0  0  0  0  0  0  0  0  0  0  0  0
    3.0331   -7.4400   27.6362 C   0  0  0  0  0  0  0  0  0  0  0  0
    5.4553   -8.5933   27.9644 C   0  0  0  0  0  0  0  0  0  0  0  0
   -2.3870  -12.8440   19.2512 C   0  0  0  0  0  0  0  0  0  0  0  0
    0.5331   -7.6964   16.2751 C   0  0  0  0  0  0  0  0  0  0  0  0
   -0.6740  -10.8737   18.0482 C   0  0  0  0  0  0  0  0  0  0  0  0
    5.6751  -10.5870   29.7637 O   0  0  0  0  0  0  0  0  0  0  0  0
    1.7612   -5.6483   26.7172 C   0  0  0  0  0  0  0  0  0  0  0  0
    0.2221   -9.8326   17.4055 C   0  0  0  0  0  0  0  0  0  0  0  0
    4.3850   -9.0730   28.6745 C   0  0  0  0  0  0  0  0  0  0  0  0
  1  7  4  0
  1 22  4  0
  2 17  4  0
  2 20  4  0
  2 28  4  0
  3  6  1  0
  3 19  1  0
  4 19  1  0
  4 26  1  0
  5 17  4  0
  5 18  4  0
  6 20  1  0
  6 26  1  0
  7 24  4  0
  8 15  4  0
  8 24  4  0
  9 14  4  0
  9 21  4  0
 10 12  4  0
 10 27  4  0
 11 12  4  0
 11 23  4  0
 13 23  4  0
 13 27  4  0
 14 20  4  0
 15 22  4  0
 16 18  4  0
 16 25  2  0
 16 28  4  0
 21 28  4  0
 24 27  1  0
M  END
$$$$

 Created by Python create_sdf_string function

 28 31  0  0  0  0  0  0  0  0999 V2000
   -1.0054  -13.0622   19.1198 C   0  0  0  0  0  0  0  0  0  0  0  0
    3.1478   -8.5360   28.5161 C   0  0  0  0  0  0  0  0  0  0  0  0
    0.5798   -7.1906   27.9330 C   0  0  0  0  0  0  0  0  0  0  0  0
    0.3978   -5.1561   26.6955 C   0  0  0  0  0  0  0  0  0  0  0  0
    2.3063  -10.0533   30.0125 C   0  0  0  0  0  0  0  0  0  0  0  0
    1.8591   -6.8254   27.4685 N   0  0  0  0  0  0  0  0  0  0  0  0
   -0.2167  -12.1055   18.5568 C   0  0  0  0  0  0  0  0  0  0  0  0
   -2.0661  -10.6994   18.1916 C   0  0  0  0  0  0  0  0  0  0  0  0
    5.2703   -7.5691   27.1123 C   0  0  0  0  0  0  0  0  0  0  0  0
    1.6204   -9.9887   17.2935 C   0  0  0  0  0  0  0  0  0  0  0  0
    1.8931   -7.9265   16.2047 C   0  0  0  0  0  0  0  0  0  0  0  0
    2.4396   -9.0801   16.7132 C   0  0  0  0  0  0  0  0  0  0  0  0
   -0.2575   -8.6234   16.8582 C   0  0  0  0  0  0  0  0  0  0  0  0
    4.0614   -7.0367   27.0106 N   0  0  0  0  0  0  0  0  0  0  0  0
   -2.9133  -11.6279   18.7578 C   0  0  0  0  0  0  0  0  0  0  0  0
    4.5688  -10.1291   29.5758 C   0  0  0  0  0  0  0  0  0  0  0  0
    2.1008   -9.0410   29.1852 N   0  0  0  0  0  0  0  0  0  0  0  0
    3.4829  -10.5697   30.2091 N   0  0  0  0  0  0  0  0  0  0  0  0
   -0.3363   -6.1172   27.5628 C   0  0  0  0  0  0  0  0  0  0  0  0
    3.0331   -7.4400   27.6362 C   0  0  0  0  0  0  0  0  0  0  0  0
    5.4553   -8.5933   27.9644 C   0  0  0  0  0  0  0  0  0  0  0  0
   -2.3870  -12.8440   19.2512 C   0  0  0  0  0  0  0  0  0  0  0  0
    0.5331   -7.6964   16.2751 C   0  0  0  0  0  0  0  0  0  0  0  0
   -0.6740  -10.8737   18.0482 C   0  0  0  0  0  0  0  0  0  0  0  0
    5.6751  -10.5870   29.7637 O   0  0  0  0  0  0  0  0  0  0  0  0
    1.7612   -5.6483   26.7172 C   0  0  0  0  0  0  0  0  0  0  0  0
    0.2221   -9.8326   17.4055 C   0  0  0  0  0  0  0  0  0  0  0  0
    4.3850   -9.0730   28.6745 C   0  0  0  0  0  0  0  0  0  0  0  0
  1  7  4  0
  1 22  4  0
  2 17  4  0
  2 20  4  0
  2 28  4  0
  3  6  1  0
  3 19  1  0
  4 19  1  0
  4 26  1  0
  5 17  4  0
  5 18  4  0
  6 20  1  0
  6 26  1  0
  7 24  4  0
  8 15  4  0
  8 24  4  0
  9 14  4  0
  9 21  4  0
 10 12  4  0
 10 27  4  0
 11 12  4  0
 11 23  4  0
 13 23  4  0
 13 27  4  0
 14 20  4  0
 15 22  4  0
 16 18  4  0
 16 25  2  0
 16 28  4  0
 21 28  4  0
 24 27  1  0
M  END
$$$$

 Created by Python create_sdf_string function

 28 31  0  0  0  0  0  0  0  0999 V2000
   -1.0054  -13.0622   19.1198 C   0  0  0  0  0  0  0  0  0  0  0  0
    3.1478   -8.5360   28.5161 C   0  0  0  0  0  0  0  0  0  0  0  0
    0.5798   -7.1906   27.9330 C   0  0  0  0  0  0  0  0  0  0  0  0
    0.3978   -5.1561   26.6955 C   0  0  0  0  0  0  0  0  0  0  0  0
    2.3063  -10.0533   30.0125 C   0  0  0  0  0  0  0  0  0  0  0  0
    1.8591   -6.8254   27.4685 N   0  0  0  0  0  0  0  0  0  0  0  0
   -0.2167  -12.1055   18.5568 C   0  0  0  0  0  0  0  0  0  0  0  0
   -2.0661  -10.6994   18.1916 C   0  0  0  0  0  0  0  0  0  0  0  0
    5.2703   -7.5691   27.1123 C   0  0  0  0  0  0  0  0  0  0  0  0
    1.6204   -9.9887   17.2935 C   0  0  0  0  0  0  0  0  0  0  0  0
    1.8931   -7.9265   16.2047 C   0  0  0  0  0  0  0  0  0  0  0  0
    2.4396   -9.0801   16.7132 C   0  0  0  0  0  0  0  0  0  0  0  0
   -0.2575   -8.6234   16.8582 C   0  0  0  0  0  0  0  0  0  0  0  0
    4.0614   -7.0367   27.0106 N   0  0  0  0  0  0  0  0  0  0  0  0
   -2.9133  -11.6279   18.7578 C   0  0  0  0  0  0  0  0  0  0  0  0
    4.5688  -10.1291   29.5758 C   0  0  0  0  0  0  0  0  0  0  0  0
    2.1008   -9.0410   29.1852 N   0  0  0  0  0  0  0  0  0  0  0  0
    3.4829  -10.5697   30.2091 N   0  0  0  0  0  0  0  0  0  0  0  0
   -0.3363   -6.1172   27.5628 C   0  0  0  0  0  0  0  0  0  0  0  0
    3.0331   -7.4400   27.6362 C   0  0  0  0  0  0  0  0  0  0  0  0
    5.4553   -8.5933   27.9644 C   0  0  0  0  0  0  0  0  0  0  0  0
   -2.3870  -12.8440   19.2512 C   0  0  0  0  0  0  0  0  0  0  0  0
    0.5331   -7.6964   16.2751 C   0  0  0  0  0  0  0  0  0  0  0  0
   -0.6740  -10.8737   18.0482 C   0  0  0  0  0  0  0  0  0  0  0  0
    5.6751  -10.5870   29.7637 O   0  0  0  0  0  0  0  0  0  0  0  0
    1.7612   -5.6483   26.7172 C   0  0  0  0  0  0  0  0  0  0  0  0
    0.2221   -9.8326   17.4055 C   0  0  0  0  0  0  0  0  0  0  0  0
    4.3850   -9.0730   28.6745 C   0  0  0  0  0  0  0  0  0  0  0  0
  1  7  4  0
  1 22  4  0
  2 17  4  0
  2 20  4  0
  2 28  4  0
  3  6  1  0
  3 19  1  0
  4 19  1  0
  4 26  1  0
  5 17  4  0
  5 18  4  0
  6 20  1  0
  6 26  1  0
  7 24  4  0
  8 15  4  0
  8 24  4  0
  9 14  4  0
  9 21  4  0
 10 12  4  0
 10 27  4  0
 11 12  4  0
 11 23  4  0
 13 23  4  0
 13 27  4  0
 14 20  4  0
 15 22  4  0
 16 18  4  0
 16 25  2  0
 16 28  4  0
 21 28  4  0
 24 27  1  0
M  END
$$$$

 Created by Python create_sdf_string function

 28 31  0  0  0  0  0  0  0  0999 V2000
   -1.0054  -13.0622   19.1198 C   0  0  0  0  0  0  0  0  0  0  0  0
    3.1478   -8.5360   28.5161 C   0  0  0  0  0  0  0  0  0  0  0  0
    0.5798   -7.1906   27.9330 C   0  0  0  0  0  0  0  0  0  0  0  0
    0.3978   -5.1561   26.6955 C   0  0  0  0  0  0  0  0  0  0  0  0
    2.3063  -10.0533   30.0125 C   0  0  0  0  0  0  0  0  0  0  0  0
    1.8591   -6.8254   27.4685 N   0  0  0  0  0  0  0  0  0  0  0  0
   -0.2167  -12.1055   18.5568 C   0  0  0  0  0  0  0  0  0  0  0  0
   -2.0661  -10.6994   18.1916 C   0  0  0  0  0  0  0  0  0  0  0  0
    5.2703   -7.5691   27.1123 C   0  0  0  0  0  0  0  0  0  0  0  0
    1.6204   -9.9887   17.2935 C   0  0  0  0  0  0  0  0  0  0  0  0
    1.8931   -7.9265   16.2047 C   0  0  0  0  0  0  0  0  0  0  0  0
    2.4396   -9.0801   16.7132 C   0  0  0  0  0  0  0  0  0  0  0  0
   -0.2575   -8.6234   16.8582 C   0  0  0  0  0  0  0  0  0  0  0  0
    4.0614   -7.0367   27.0106 N   0  0  0  0  0  0  0  0  0  0  0  0
   -2.9133  -11.6279   18.7578 C   0  0  0  0  0  0  0  0  0  0  0  0
    4.5688  -10.1291   29.5758 C   0  0  0  0  0  0  0  0  0  0  0  0
    2.1008   -9.0410   29.1852 N   0  0  0  0  0  0  0  0  0  0  0  0
    3.4829  -10.5697   30.2091 N   0  0  0  0  0  0  0  0  0  0  0  0
   -0.3363   -6.1172   27.5628 C   0  0  0  0  0  0  0  0  0  0  0  0
    3.0331   -7.4400   27.6362 C   0  0  0  0  0  0  0  0  0  0  0  0
    5.4553   -8.5933   27.9644 C   0  0  0  0  0  0  0  0  0  0  0  0
   -2.3870  -12.8440   19.2512 C   0  0  0  0  0  0  0  0  0  0  0  0
    0.5331   -7.6964   16.2751 C   0  0  0  0  0  0  0  0  0  0  0  0
   -0.6740  -10.8737   18.0482 C   0  0  0  0  0  0  0  0  0  0  0  0
    5.6751  -10.5870   29.7637 O   0  0  0  0  0  0  0  0  0  0  0  0
    1.7612   -5.6483   26.7172 C   0  0  0  0  0  0  0  0  0  0  0  0
    0.2221   -9.8326   17.4055 C   0  0  0  0  0  0  0  0  0  0  0  0
    4.3850   -9.0730   28.6745 C   0  0  0  0  0  0  0  0  0  0  0  0
  1  7  4  0
  1 22  4  0
  2 17  4  0
  2 20  4  0
  2 28  4  0
  3  6  1  0
  3 19  1  0
  4 19  1  0
  4 26  1  0
  5 17  4  0
  5 18  4  0
  6 20  1  0
  6 26  1  0
  7 24  4  0
  8 15  4  0
  8 24  4  0
  9 14  4  0
  9 21  4  0
 10 12  4  0
 10 27  4  0
 11 12  4  0
 11 23  4  0
 13 23  4  0
 13 27  4  0
 14 20  4  0
 15 22  4  0
 16 18  4  0
 16 25  2  0
 16 28  4  0
 21 28  4  0
 24 27  1  0
M  END
$$$$

 Created by Python create_sdf_string function

 28 31  0  0  0  0  0  0  0  0999 V2000
   -1.0054  -13.0622   19.1198 C   0  0  0  0  0  0  0  0  0  0  0  0
    3.1478   -8.5360   28.5161 C   0  0  0  0  0  0  0  0  0  0  0  0
    0.5798   -7.1906   27.9330 C   0  0  0  0  0  0  0  0  0  0  0  0
    0.3978   -5.1561   26.6955 C   0  0  0  0  0  0  0  0  0  0  0  0
    2.3063  -10.0533   30.0125 C   0  0  0  0  0  0  0  0  0  0  0  0
    1.8591   -6.8254   27.4685 N   0  0  0  0  0  0  0  0  0  0  0  0
   -0.2167  -12.1055   18.5568 C   0  0  0  0  0  0  0  0  0  0  0  0
   -2.0661  -10.6994   18.1916 C   0  0  0  0  0  0  0  0  0  0  0  0
    5.2703   -7.5691   27.1123 C   0  0  0  0  0  0  0  0  0  0  0  0
    1.6204   -9.9887   17.2935 C   0  0  0  0  0  0  0  0  0  0  0  0
    1.8931   -7.9265   16.2047 C   0  0  0  0  0  0  0  0  0  0  0  0
    2.4396   -9.0801   16.7132 C   0  0  0  0  0  0  0  0  0  0  0  0
   -0.2575   -8.6234   16.8582 C   0  0  0  0  0  0  0  0  0  0  0  0
    4.0614   -7.0367   27.0106 N   0  0  0  0  0  0  0  0  0  0  0  0
   -2.9133  -11.6279   18.7578 C   0  0  0  0  0  0  0  0  0  0  0  0
    4.5688  -10.1291   29.5758 C   0  0  0  0  0  0  0  0  0  0  0  0
    2.1008   -9.0410   29.1852 N   0  0  0  0  0  0  0  0  0  0  0  0
    3.4829  -10.5697   30.2091 N   0  0  0  0  0  0  0  0  0  0  0  0
   -0.3363   -6.1172   27.5628 C   0  0  0  0  0  0  0  0  0  0  0  0
    3.0331   -7.4400   27.6362 C   0  0  0  0  0  0  0  0  0  0  0  0
    5.4553   -8.5933   27.9644 C   0  0  0  0  0  0  0  0  0  0  0  0
   -2.3870  -12.8440   19.2512 C   0  0  0  0  0  0  0  0  0  0  0  0
    0.5331   -7.6964   16.2751 C   0  0  0  0  0  0  0  0  0  0  0  0
   -0.6740  -10.8737   18.0482 C   0  0  0  0  0  0  0  0  0  0  0  0
    5.6751  -10.5870   29.7637 O   0  0  0  0  0  0  0  0  0  0  0  0
    1.7612   -5.6483   26.7172 C   0  0  0  0  0  0  0  0  0  0  0  0
    0.2221   -9.8326   17.4055 C   0  0  0  0  0  0  0  0  0  0  0  0
    4.3850   -9.0730   28.6745 C   0  0  0  0  0  0  0  0  0  0  0  0
  1  7  4  0
  1 22  4  0
  2 17  4  0
  2 20  4  0
  2 28  4  0
  3  6  1  0
  3 19  1  0
  4 19  1  0
  4 26  1  0
  5 17  4  0
  5 18  4  0
  6 20  1  0
  6 26  1  0
  7 24  4  0
  8 15  4  0
  8 24  4  0
  9 14  4  0
  9 21  4  0
 10 12  4  0
 10 27  4  0
 11 12  4  0
 11 23  4  0
 13 23  4  0
 13 27  4  0
 14 20  4  0
 15 22  4  0
 16 18  4  0
 16 25  2  0
 16 28  4  0
 21 28  4  0
 24 27  1  0
M  END
$$$$

 Created by Python create_sdf_string function

 28 31  0  0  0  0  0  0  0  0999 V2000
   -1.0054  -13.0622   19.1198 C   0  0  0  0  0  0  0  0  0  0  0  0
    3.1478   -8.5360   28.5161 C   0  0  0  0  0  0  0  0  0  0  0  0
    0.5798   -7.1906   27.9330 C   0  0  0  0  0  0  0  0  0  0  0  0
    0.3978   -5.1561   26.6955 C   0  0  0  0  0  0  0  0  0  0  0  0
    2.3063  -10.0533   30.0125 C   0  0  0  0  0  0  0  0  0  0  0  0
    1.8591   -6.8254   27.4685 N   0  0  0  0  0  0  0  0  0  0  0  0
   -0.2167  -12.1055   18.5568 C   0  0  0  0  0  0  0  0  0  0  0  0
   -2.0661  -10.6994   18.1916 C   0  0  0  0  0  0  0  0  0  0  0  0
    5.2703   -7.5691   27.1123 C   0  0  0  0  0  0  0  0  0  0  0  0
    1.6204   -9.9887   17.2935 C   0  0  0  0  0  0  0  0  0  0  0  0
    1.8931   -7.9265   16.2047 C   0  0  0  0  0  0  0  0  0  0  0  0
    2.4396   -9.0801   16.7132 C   0  0  0  0  0  0  0  0  0  0  0  0
   -0.2575   -8.6234   16.8582 C   0  0  0  0  0  0  0  0  0  0  0  0
    4.0614   -7.0367   27.0106 N   0  0  0  0  0  0  0  0  0  0  0  0
   -2.9133  -11.6279   18.7578 C   0  0  0  0  0  0  0  0  0  0  0  0
    4.5688  -10.1291   29.5758 C   0  0  0  0  0  0  0  0  0  0  0  0
    2.1008   -9.0410   29.1852 N   0  0  0  0  0  0  0  0  0  0  0  0
    3.4829  -10.5697   30.2091 N   0  0  0  0  0  0  0  0  0  0  0  0
   -0.3363   -6.1172   27.5628 C   0  0  0  0  0  0  0  0  0  0  0  0
    3.0331   -7.4400   27.6362 C   0  0  0  0  0  0  0  0  0  0  0  0
    5.4553   -8.5933   27.9644 C   0  0  0  0  0  0  0  0  0  0  0  0
   -2.3870  -12.8440   19.2512 C   0  0  0  0  0  0  0  0  0  0  0  0
    0.5331   -7.6964   16.2751 C   0  0  0  0  0  0  0  0  0  0  0  0
   -0.6740  -10.8737   18.0482 C   0  0  0  0  0  0  0  0  0  0  0  0
    5.6751  -10.5870   29.7637 O   0  0  0  0  0  0  0  0  0  0  0  0
    1.7612   -5.6483   26.7172 C   0  0  0  0  0  0  0  0  0  0  0  0
    0.2221   -9.8326   17.4055 C   0  0  0  0  0  0  0  0  0  0  0  0
    4.3850   -9.0730   28.6745 C   0  0  0  0  0  0  0  0  0  0  0  0
  1  7  4  0
  1 22  4  0
  2 17  4  0
  2 20  4  0
  2 28  4  0
  3  6  1  0
  3 19  1  0
  4 19  1  0
  4 26  1  0
  5 17  4  0
  5 18  4  0
  6 20  1  0
  6 26  1  0
  7 24  4  0
  8 15  4  0
  8 24  4  0
  9 14  4  0
  9 21  4  0
 10 12  4  0
 10 27  4  0
 11 12  4  0
 11 23  4  0
 13 23  4  0
 13 27  4  0
 14 20  4  0
 15 22  4  0
 16 18  4  0
 16 25  2  0
 16 28  4  0
 21 28  4  0
 24 27  1  0
M  END
$$$$

 Created by Python create_sdf_string function

 28 31  0  0  0  0  0  0  0  0999 V2000
   -1.0054  -13.0622   19.1198 C   0  0  0  0  0  0  0  0  0  0  0  0
    3.1478   -8.5360   28.5161 C   0  0  0  0  0  0  0  0  0  0  0  0
    0.5798   -7.1906   27.9330 C   0  0  0  0  0  0  0  0  0  0  0  0
    0.3978   -5.1561   26.6955 C   0  0  0  0  0  0  0  0  0  0  0  0
    2.3063  -10.0533   30.0125 C   0  0  0  0  0  0  0  0  0  0  0  0
    1.8591   -6.8254   27.4685 N   0  0  0  0  0  0  0  0  0  0  0  0
   -0.2167  -12.1055   18.5568 C   0  0  0  0  0  0  0  0  0  0  0  0
   -2.0661  -10.6994   18.1916 C   0  0  0  0  0  0  0  0  0  0  0  0
    5.2703   -7.5691   27.1123 C   0  0  0  0  0  0  0  0  0  0  0  0
    1.6204   -9.9887   17.2935 C   0  0  0  0  0  0  0  0  0  0  0  0
    1.8931   -7.9265   16.2047 C   0  0  0  0  0  0  0  0  0  0  0  0
    2.4396   -9.0801   16.7132 C   0  0  0  0  0  0  0  0  0  0  0  0
   -0.2575   -8.6234   16.8582 C   0  0  0  0  0  0  0  0  0  0  0  0
    4.0614   -7.0367   27.0106 N   0  0  0  0  0  0  0  0  0  0  0  0
   -2.9133  -11.6279   18.7578 C   0  0  0  0  0  0  0  0  0  0  0  0
    4.5688  -10.1291   29.5758 C   0  0  0  0  0  0  0  0  0  0  0  0
    2.1008   -9.0410   29.1852 N   0  0  0  0  0  0  0  0  0  0  0  0
    3.4829  -10.5697   30.2091 N   0  0  0  0  0  0  0  0  0  0  0  0
   -0.3363   -6.1172   27.5628 C   0  0  0  0  0  0  0  0  0  0  0  0
    3.0331   -7.4400   27.6362 C   0  0  0  0  0  0  0  0  0  0  0  0
    5.4553   -8.5933   27.9644 C   0  0  0  0  0  0  0  0  0  0  0  0
   -2.3870  -12.8440   19.2512 C   0  0  0  0  0  0  0  0  0  0  0  0
    0.5331   -7.6964   16.2751 C   0  0  0  0  0  0  0  0  0  0  0  0
   -0.6740  -10.8737   18.0482 C   0  0  0  0  0  0  0  0  0  0  0  0
    5.6751  -10.5870   29.7637 O   0  0  0  0  0  0  0  0  0  0  0  0
    1.7612   -5.6483   26.7172 C   0  0  0  0  0  0  0  0  0  0  0  0
    0.2221   -9.8326   17.4055 C   0  0  0  0  0  0  0  0  0  0  0  0
    4.3850   -9.0730   28.6745 C   0  0  0  0  0  0  0  0  0  0  0  0
  1  7  4  0
  1 22  4  0
  2 17  4  0
  2 20  4  0
  2 28  4  0
  3  6  1  0
  3 19  1  0
  4 19  1  0
  4 26  1  0
  5 17  4  0
  5 18  4  0
  6 20  1  0
  6 26  1  0
  7 24  4  0
  8 15  4  0
  8 24  4  0
  9 14  4  0
  9 21  4  0
 10 12  4  0
 10 27  4  0
 11 12  4  0
 11 23  4  0
 13 23  4  0
 13 27  4  0
 14 20  4  0
 15 22  4  0
 16 18  4  0
 16 25  2  0
 16 28  4  0
 21 28  4  0
 24 27  1  0
M  END
$$$$

 Created by Python create_sdf_string function

 28 31  0  0  0  0  0  0  0  0999 V2000
   -1.0054  -13.0622   19.1198 C   0  0  0  0  0  0  0  0  0  0  0  0
    3.1478   -8.5360   28.5161 C   0  0  0  0  0  0  0  0  0  0  0  0
    0.5798   -7.1906   27.9330 C   0  0  0  0  0  0  0  0  0  0  0  0
    0.3978   -5.1561   26.6955 C   0  0  0  0  0  0  0  0  0  0  0  0
    2.3063  -10.0533   30.0125 C   0  0  0  0  0  0  0  0  0  0  0  0
    1.8591   -6.8254   27.4685 N   0  0  0  0  0  0  0  0  0  0  0  0
   -0.2167  -12.1055   18.5568 C   0  0  0  0  0  0  0  0  0  0  0  0
   -2.0661  -10.6994   18.1916 C   0  0  0  0  0  0  0  0  0  0  0  0
    5.2703   -7.5691   27.1123 C   0  0  0  0  0  0  0  0  0  0  0  0
    1.6204   -9.9887   17.2935 C   0  0  0  0  0  0  0  0  0  0  0  0
    1.8931   -7.9265   16.2047 C   0  0  0  0  0  0  0  0  0  0  0  0
    2.4396   -9.0801   16.7132 C   0  0  0  0  0  0  0  0  0  0  0  0
   -0.2575   -8.6234   16.8582 C   0  0  0  0  0  0  0  0  0  0  0  0
    4.0614   -7.0367   27.0106 N   0  0  0  0  0  0  0  0  0  0  0  0
   -2.9133  -11.6279   18.7578 C   0  0  0  0  0  0  0  0  0  0  0  0
    4.5688  -10.1291   29.5758 C   0  0  0  0  0  0  0  0  0  0  0  0
    2.1008   -9.0410   29.1852 N   0  0  0  0  0  0  0  0  0  0  0  0
    3.4829  -10.5697   30.2091 N   0  0  0  0  0  0  0  0  0  0  0  0
   -0.3363   -6.1172   27.5628 C   0  0  0  0  0  0  0  0  0  0  0  0
    3.0331   -7.4400   27.6362 C   0  0  0  0  0  0  0  0  0  0  0  0
    5.4553   -8.5933   27.9644 C   0  0  0  0  0  0  0  0  0  0  0  0
   -2.3870  -12.8440   19.2512 C   0  0  0  0  0  0  0  0  0  0  0  0
    0.5331   -7.6964   16.2751 C   0  0  0  0  0  0  0  0  0  0  0  0
   -0.6740  -10.8737   18.0482 C   0  0  0  0  0  0  0  0  0  0  0  0
    5.6751  -10.5870   29.7637 O   0  0  0  0  0  0  0  0  0  0  0  0
    1.7612   -5.6483   26.7172 C   0  0  0  0  0  0  0  0  0  0  0  0
    0.2221   -9.8326   17.4055 C   0  0  0  0  0  0  0  0  0  0  0  0
    4.3850   -9.0730   28.6745 C   0  0  0  0  0  0  0  0  0  0  0  0
  1  7  4  0
  1 22  4  0
  2 17  4  0
  2 20  4  0
  2 28  4  0
  3  6  1  0
  3 19  1  0
  4 19  1  0
  4 26  1  0
  5 17  4  0
  5 18  4  0
  6 20  1  0
  6 26  1  0
  7 24  4  0
  8 15  4  0
  8 24  4  0
  9 14  4  0
  9 21  4  0
 10 12  4  0
 10 27  4  0
 11 12  4  0
 11 23  4  0
 13 23  4  0
 13 27  4  0
 14 20  4  0
 15 22  4  0
 16 18  4  0
 16 25  2  0
 16 28  4  0
 21 28  4  0
 24 27  1  0
M  END
$$$$

 Created by Python create_sdf_string function

 28 31  0  0  0  0  0  0  0  0999 V2000
   -1.0054  -13.0622   19.1198 C   0  0  0  0  0  0  0  0  0  0  0  0
    3.1478   -8.5360   28.5161 C   0  0  0  0  0  0  0  0  0  0  0  0
    0.5798   -7.1906   27.9330 C   0  0  0  0  0  0  0  0  0  0  0  0
    0.3978   -5.1561   26.6955 C   0  0  0  0  0  0  0  0  0  0  0  0
    2.3063  -10.0533   30.0125 C   0  0  0  0  0  0  0  0  0  0  0  0
    1.8591   -6.8254   27.4685 N   0  0  0  0  0  0  0  0  0  0  0  0
   -0.2167  -12.1055   18.5568 C   0  0  0  0  0  0  0  0  0  0  0  0
   -2.0661  -10.6994   18.1916 C   0  0  0  0  0  0  0  0  0  0  0  0
    5.2703   -7.5691   27.1123 C   0  0  0  0  0  0  0  0  0  0  0  0
    1.6204   -9.9887   17.2935 C   0  0  0  0  0  0  0  0  0  0  0  0
    1.8931   -7.9265   16.2047 C   0  0  0  0  0  0  0  0  0  0  0  0
    2.4396   -9.0801   16.7132 C   0  0  0  0  0  0  0  0  0  0  0  0
   -0.2575   -8.6234   16.8582 C   0  0  0  0  0  0  0  0  0  0  0  0
    4.0614   -7.0367   27.0106 N   0  0  0  0  0  0  0  0  0  0  0  0
   -2.9133  -11.6279   18.7578 C   0  0  0  0  0  0  0  0  0  0  0  0
    4.5688  -10.1291   29.5758 C   0  0  0  0  0  0  0  0  0  0  0  0
    2.1008   -9.0410   29.1852 N   0  0  0  0  0  0  0  0  0  0  0  0
    3.4829  -10.5697   30.2091 N   0  0  0  0  0  0  0  0  0  0  0  0
   -0.3363   -6.1172   27.5628 C   0  0  0  0  0  0  0  0  0  0  0  0
    3.0331   -7.4400   27.6362 C   0  0  0  0  0  0  0  0  0  0  0  0
    5.4553   -8.5933   27.9644 C   0  0  0  0  0  0  0  0  0  0  0  0
   -2.3870  -12.8440   19.2512 C   0  0  0  0  0  0  0  0  0  0  0  0
    0.5331   -7.6964   16.2751 C   0  0  0  0  0  0  0  0  0  0  0  0
   -0.6740  -10.8737   18.0482 C   0  0  0  0  0  0  0  0  0  0  0  0
    5.6751  -10.5870   29.7637 O   0  0  0  0  0  0  0  0  0  0  0  0
    1.7612   -5.6483   26.7172 C   0  0  0  0  0  0  0  0  0  0  0  0
    0.2221   -9.8326   17.4055 C   0  0  0  0  0  0  0  0  0  0  0  0
    4.3850   -9.0730   28.6745 C   0  0  0  0  0  0  0  0  0  0  0  0
  1  7  4  0
  1 22  4  0
  2 17  4  0
  2 20  4  0
  2 28  4  0
  3  6  1  0
  3 19  1  0
  4 19  1  0
  4 26  1  0
  5 17  4  0
  5 18  4  0
  6 20  1  0
  6 26  1  0
  7 24  4  0
  8 15  4  0
  8 24  4  0
  9 14  4  0
  9 21  4  0
 10 12  4  0
 10 27  4  0
 11 12  4  0
 11 23  4  0
 13 23  4  0
 13 27  4  0
 14 20  4  0
 15 22  4  0
 16 18  4  0
 16 25  2  0
 16 28  4  0
 21 28  4  0
 24 27  1  0
M  END
$$$$

 Created by Python create_sdf_string function

 28 31  0  0  0  0  0  0  0  0999 V2000
   -1.0054  -13.0622   19.1198 C   0  0  0  0  0  0  0  0  0  0  0  0
    3.1478   -8.5360   28.5161 C   0  0  0  0  0  0  0  0  0  0  0  0
    0.5798   -7.1906   27.9330 C   0  0  0  0  0  0  0  0  0  0  0  0
    0.3978   -5.1561   26.6955 C   0  0  0  0  0  0  0  0  0  0  0  0
    2.3063  -10.0533   30.0125 C   0  0  0  0  0  0  0  0  0  0  0  0
    1.8591   -6.8254   27.4685 N   0  0  0  0  0  0  0  0  0  0  0  0
   -0.2167  -12.1055   18.5568 C   0  0  0  0  0  0  0  0  0  0  0  0
   -2.0661  -10.6994   18.1916 C   0  0  0  0  0  0  0  0  0  0  0  0
    5.2703   -7.5691   27.1123 C   0  0  0  0  0  0  0  0  0  0  0  0
    1.6204   -9.9887   17.2935 C   0  0  0  0  0  0  0  0  0  0  0  0
    1.8931   -7.9265   16.2047 C   0  0  0  0  0  0  0  0  0  0  0  0
    2.4396   -9.0801   16.7132 C   0  0  0  0  0  0  0  0  0  0  0  0
   -0.2575   -8.6234   16.8582 C   0  0  0  0  0  0  0  0  0  0  0  0
    4.0614   -7.0367   27.0106 N   0  0  0  0  0  0  0  0  0  0  0  0
   -2.9133  -11.6279   18.7578 C   0  0  0  0  0  0  0  0  0  0  0  0
    4.5688  -10.1291   29.5758 C   0  0  0  0  0  0  0  0  0  0  0  0
    2.1008   -9.0410   29.1852 N   0  0  0  0  0  0  0  0  0  0  0  0
    3.4829  -10.5697   30.2091 N   0  0  0  0  0  0  0  0  0  0  0  0
   -0.3363   -6.1172   27.5628 C   0  0  0  0  0  0  0  0  0  0  0  0
    3.0331   -7.4400   27.6362 C   0  0  0  0  0  0  0  0  0  0  0  0
    5.4553   -8.5933   27.9644 C   0  0  0  0  0  0  0  0  0  0  0  0
   -2.3870  -12.8440   19.2512 C   0  0  0  0  0  0  0  0  0  0  0  0
    0.5331   -7.6964   16.2751 C   0  0  0  0  0  0  0  0  0  0  0  0
   -0.6740  -10.8737   18.0482 C   0  0  0  0  0  0  0  0  0  0  0  0
    5.6751  -10.5870   29.7637 O   0  0  0  0  0  0  0  0  0  0  0  0
    1.7612   -5.6483   26.7172 C   0  0  0  0  0  0  0  0  0  0  0  0
    0.2221   -9.8326   17.4055 C   0  0  0  0  0  0  0  0  0  0  0  0
    4.3850   -9.0730   28.6745 C   0  0  0  0  0  0  0  0  0  0  0  0
  1  7  4  0
  1 22  4  0
  2 17  4  0
  2 20  4  0
  2 28  4  0
  3  6  1  0
  3 19  1  0
  4 19  1  0
  4 26  1  0
  5 17  4  0
  5 18  4  0
  6 20  1  0
  6 26  1  0
  7 24  4  0
  8 15  4  0
  8 24  4  0
  9 14  4  0
  9 21  4  0
 10 12  4  0
 10 27  4  0
 11 12  4  0
 11 23  4  0
 13 23  4  0
 13 27  4  0
 14 20  4  0
 15 22  4  0
 16 18  4  0
 16 25  2  0
 16 28  4  0
 21 28  4  0
 24 27  1  0
M  END
$$$$

 Created by Python create_sdf_string function

 28 31  0  0  0  0  0  0  0  0999 V2000
   -1.0054  -13.0622   19.1198 C   0  0  0  0  0  0  0  0  0  0  0  0
    3.1478   -8.5360   28.5161 C   0  0  0  0  0  0  0  0  0  0  0  0
    0.5798   -7.1906   27.9330 C   0  0  0  0  0  0  0  0  0  0  0  0
    0.3978   -5.1561   26.6955 C   0  0  0  0  0  0  0  0  0  0  0  0
    2.3063  -10.0533   30.0125 C   0  0  0  0  0  0  0  0  0  0  0  0
    1.8591   -6.8254   27.4685 N   0  0  0  0  0  0  0  0  0  0  0  0
   -0.2167  -12.1055   18.5568 C   0  0  0  0  0  0  0  0  0  0  0  0
   -2.0661  -10.6994   18.1916 C   0  0  0  0  0  0  0  0  0  0  0  0
    5.2703   -7.5691   27.1123 C   0  0  0  0  0  0  0  0  0  0  0  0
    1.6204   -9.9887   17.2935 C   0  0  0  0  0  0  0  0  0  0  0  0
    1.8931   -7.9265   16.2047 C   0  0  0  0  0  0  0  0  0  0  0  0
    2.4396   -9.0801   16.7132 C   0  0  0  0  0  0  0  0  0  0  0  0
   -0.2575   -8.6234   16.8582 C   0  0  0  0  0  0  0  0  0  0  0  0
    4.0614   -7.0367   27.0106 N   0  0  0  0  0  0  0  0  0  0  0  0
   -2.9133  -11.6279   18.7578 C   0  0  0  0  0  0  0  0  0  0  0  0
    4.5688  -10.1291   29.5758 C   0  0  0  0  0  0  0  0  0  0  0  0
    2.1008   -9.0410   29.1852 N   0  0  0  0  0  0  0  0  0  0  0  0
    3.4829  -10.5697   30.2091 N   0  0  0  0  0  0  0  0  0  0  0  0
   -0.3363   -6.1172   27.5628 C   0  0  0  0  0  0  0  0  0  0  0  0
    3.0331   -7.4400   27.6362 C   0  0  0  0  0  0  0  0  0  0  0  0
    5.4553   -8.5933   27.9644 C   0  0  0  0  0  0  0  0  0  0  0  0
   -2.3870  -12.8440   19.2512 C   0  0  0  0  0  0  0  0  0  0  0  0
    0.5331   -7.6964   16.2751 C   0  0  0  0  0  0  0  0  0  0  0  0
   -0.6740  -10.8737   18.0482 C   0  0  0  0  0  0  0  0  0  0  0  0
    5.6751  -10.5870   29.7637 O   0  0  0  0  0  0  0  0  0  0  0  0
    1.7612   -5.6483   26.7172 C   0  0  0  0  0  0  0  0  0  0  0  0
    0.2221   -9.8326   17.4055 C   0  0  0  0  0  0  0  0  0  0  0  0
    4.3850   -9.0730   28.6745 C   0  0  0  0  0  0  0  0  0  0  0  0
  1  7  4  0
  1 22  4  0
  2 17  4  0
  2 20  4  0
  2 28  4  0
  3  6  1  0
  3 19  1  0
  4 19  1  0
  4 26  1  0
  5 17  4  0
  5 18  4  0
  6 20  1  0
  6 26  1  0
  7 24  4  0
  8 15  4  0
  8 24  4  0
  9 14  4  0
  9 21  4  0
 10 12  4  0
 10 27  4  0
 11 12  4  0
 11 23  4  0
 13 23  4  0
 13 27  4  0
 14 20  4  0
 15 22  4  0
 16 18  4  0
 16 25  2  0
 16 28  4  0
 21 28  4  0
 24 27  1  0
M  END
$$$$

 Created by Python create_sdf_string function

 28 31  0  0  0  0  0  0  0  0999 V2000
   -1.0054  -13.0622   19.1198 C   0  0  0  0  0  0  0  0  0  0  0  0
    3.1478   -8.5360   28.5161 C   0  0  0  0  0  0  0  0  0  0  0  0
    0.5798   -7.1906   27.9330 C   0  0  0  0  0  0  0  0  0  0  0  0
    0.3978   -5.1561   26.6955 C   0  0  0  0  0  0  0  0  0  0  0  0
    2.3063  -10.0533   30.0125 C   0  0  0  0  0  0  0  0  0  0  0  0
    1.8591   -6.8254   27.4685 N   0  0  0  0  0  0  0  0  0  0  0  0
   -0.2167  -12.1055   18.5568 C   0  0  0  0  0  0  0  0  0  0  0  0
   -2.0661  -10.6994   18.1916 C   0  0  0  0  0  0  0  0  0  0  0  0
    5.2703   -7.5691   27.1123 C   0  0  0  0  0  0  0  0  0  0  0  0
    1.6204   -9.9887   17.2935 C   0  0  0  0  0  0  0  0  0  0  0  0
    1.8931   -7.9265   16.2047 C   0  0  0  0  0  0  0  0  0  0  0  0
    2.4396   -9.0801   16.7132 C   0  0  0  0  0  0  0  0  0  0  0  0
   -0.2575   -8.6234   16.8582 C   0  0  0  0  0  0  0  0  0  0  0  0
    4.0614   -7.0367   27.0106 N   0  0  0  0  0  0  0  0  0  0  0  0
   -2.9133  -11.6279   18.7578 C   0  0  0  0  0  0  0  0  0  0  0  0
    4.5688  -10.1291   29.5758 C   0  0  0  0  0  0  0  0  0  0  0  0
    2.1008   -9.0410   29.1852 N   0  0  0  0  0  0  0  0  0  0  0  0
    3.4829  -10.5697   30.2091 N   0  0  0  0  0  0  0  0  0  0  0  0
   -0.3363   -6.1172   27.5628 C   0  0  0  0  0  0  0  0  0  0  0  0
    3.0331   -7.4400   27.6362 C   0  0  0  0  0  0  0  0  0  0  0  0
    5.4553   -8.5933   27.9644 C   0  0  0  0  0  0  0  0  0  0  0  0
   -2.3870  -12.8440   19.2512 C   0  0  0  0  0  0  0  0  0  0  0  0
    0.5331   -7.6964   16.2751 C   0  0  0  0  0  0  0  0  0  0  0  0
   -0.6740  -10.8737   18.0482 C   0  0  0  0  0  0  0  0  0  0  0  0
    5.6751  -10.5870   29.7637 O   0  0  0  0  0  0  0  0  0  0  0  0
    1.7612   -5.6483   26.7172 C   0  0  0  0  0  0  0  0  0  0  0  0
    0.2221   -9.8326   17.4055 C   0  0  0  0  0  0  0  0  0  0  0  0
    4.3850   -9.0730   28.6745 C   0  0  0  0  0  0  0  0  0  0  0  0
  1  7  4  0
  1 22  4  0
  2 17  4  0
  2 20  4  0
  2 28  4  0
  3  6  1  0
  3 19  1  0
  4 19  1  0
  4 26  1  0
  5 17  4  0
  5 18  4  0
  6 20  1  0
  6 26  1  0
  7 24  4  0
  8 15  4  0
  8 24  4  0
  9 14  4  0
  9 21  4  0
 10 12  4  0
 10 27  4  0
 11 12  4  0
 11 23  4  0
 13 23  4  0
 13 27  4  0
 14 20  4  0
 15 22  4  0
 16 18  4  0
 16 25  2  0
 16 28  4  0
 21 28  4  0
 24 27  1  0
M  END
$$$$

 Created by Python create_sdf_string function

 28 31  0  0  0  0  0  0  0  0999 V2000
   -1.0054  -13.0622   19.1198 C   0  0  0  0  0  0  0  0  0  0  0  0
    3.1478   -8.5360   28.5161 C   0  0  0  0  0  0  0  0  0  0  0  0
    0.5798   -7.1906   27.9330 C   0  0  0  0  0  0  0  0  0  0  0  0
    0.3978   -5.1561   26.6955 C   0  0  0  0  0  0  0  0  0  0  0  0
    2.3063  -10.0533   30.0125 C   0  0  0  0  0  0  0  0  0  0  0  0
    1.8591   -6.8254   27.4685 N   0  0  0  0  0  0  0  0  0  0  0  0
   -0.2167  -12.1055   18.5568 C   0  0  0  0  0  0  0  0  0  0  0  0
   -2.0661  -10.6994   18.1916 C   0  0  0  0  0  0  0  0  0  0  0  0
    5.2703   -7.5691   27.1123 C   0  0  0  0  0  0  0  0  0  0  0  0
    1.6204   -9.9887   17.2935 C   0  0  0  0  0  0  0  0  0  0  0  0
    1.8931   -7.9265   16.2047 C   0  0  0  0  0  0  0  0  0  0  0  0
    2.4396   -9.0801   16.7132 C   0  0  0  0  0  0  0  0  0  0  0  0
   -0.2575   -8.6234   16.8582 C   0  0  0  0  0  0  0  0  0  0  0  0
    4.0614   -7.0367   27.0106 N   0  0  0  0  0  0  0  0  0  0  0  0
   -2.9133  -11.6279   18.7578 C   0  0  0  0  0  0  0  0  0  0  0  0
    4.5688  -10.1291   29.5758 C   0  0  0  0  0  0  0  0  0  0  0  0
    2.1008   -9.0410   29.1852 N   0  0  0  0  0  0  0  0  0  0  0  0
    3.4829  -10.5697   30.2091 N   0  0  0  0  0  0  0  0  0  0  0  0
   -0.3363   -6.1172   27.5628 C   0  0  0  0  0  0  0  0  0  0  0  0
    3.0331   -7.4400   27.6362 C   0  0  0  0  0  0  0  0  0  0  0  0
    5.4553   -8.5933   27.9644 C   0  0  0  0  0  0  0  0  0  0  0  0
   -2.3870  -12.8440   19.2512 C   0  0  0  0  0  0  0  0  0  0  0  0
    0.5331   -7.6964   16.2751 C   0  0  0  0  0  0  0  0  0  0  0  0
   -0.6740  -10.8737   18.0482 C   0  0  0  0  0  0  0  0  0  0  0  0
    5.6751  -10.5870   29.7637 O   0  0  0  0  0  0  0  0  0  0  0  0
    1.7612   -5.6483   26.7172 C   0  0  0  0  0  0  0  0  0  0  0  0
    0.2221   -9.8326   17.4055 C   0  0  0  0  0  0  0  0  0  0  0  0
    4.3850   -9.0730   28.6745 C   0  0  0  0  0  0  0  0  0  0  0  0
  1  7  4  0
  1 22  4  0
  2 17  4  0
  2 20  4  0
  2 28  4  0
  3  6  1  0
  3 19  1  0
  4 19  1  0
  4 26  1  0
  5 17  4  0
  5 18  4  0
  6 20  1  0
  6 26  1  0
  7 24  4  0
  8 15  4  0
  8 24  4  0
  9 14  4  0
  9 21  4  0
 10 12  4  0
 10 27  4  0
 11 12  4  0
 11 23  4  0
 13 23  4  0
 13 27  4  0
 14 20  4  0
 15 22  4  0
 16 18  4  0
 16 25  2  0
 16 28  4  0
 21 28  4  0
 24 27  1  0
M  END
$$$$

 Created by Python create_sdf_string function

 28 31  0  0  0  0  0  0  0  0999 V2000
   -1.0054  -13.0622   19.1198 C   0  0  0  0  0  0  0  0  0  0  0  0
    3.1478   -8.5360   28.5161 C   0  0  0  0  0  0  0  0  0  0  0  0
    0.5798   -7.1906   27.9330 C   0  0  0  0  0  0  0  0  0  0  0  0
    0.3978   -5.1561   26.6955 C   0  0  0  0  0  0  0  0  0  0  0  0
    2.3063  -10.0533   30.0125 C   0  0  0  0  0  0  0  0  0  0  0  0
    1.8591   -6.8254   27.4685 N   0  0  0  0  0  0  0  0  0  0  0  0
   -0.2167  -12.1055   18.5568 C   0  0  0  0  0  0  0  0  0  0  0  0
   -2.0661  -10.6994   18.1916 C   0  0  0  0  0  0  0  0  0  0  0  0
    5.2703   -7.5691   27.1123 C   0  0  0  0  0  0  0  0  0  0  0  0
    1.6204   -9.9887   17.2935 C   0  0  0  0  0  0  0  0  0  0  0  0
    1.8931   -7.9265   16.2047 C   0  0  0  0  0  0  0  0  0  0  0  0
    2.4396   -9.0801   16.7132 C   0  0  0  0  0  0  0  0  0  0  0  0
   -0.2575   -8.6234   16.8582 C   0  0  0  0  0  0  0  0  0  0  0  0
    4.0614   -7.0367   27.0106 N   0  0  0  0  0  0  0  0  0  0  0  0
   -2.9133  -11.6279   18.7578 C   0  0  0  0  0  0  0  0  0  0  0  0
    4.5688  -10.1291   29.5758 C   0  0  0  0  0  0  0  0  0  0  0  0
    2.1008   -9.0410   29.1852 N   0  0  0  0  0  0  0  0  0  0  0  0
    3.4829  -10.5697   30.2091 N   0  0  0  0  0  0  0  0  0  0  0  0
   -0.3363   -6.1172   27.5628 C   0  0  0  0  0  0  0  0  0  0  0  0
    3.0331   -7.4400   27.6362 C   0  0  0  0  0  0  0  0  0  0  0  0
    5.4553   -8.5933   27.9644 C   0  0  0  0  0  0  0  0  0  0  0  0
   -2.3870  -12.8440   19.2512 C   0  0  0  0  0  0  0  0  0  0  0  0
    0.5331   -7.6964   16.2751 C   0  0  0  0  0  0  0  0  0  0  0  0
   -0.6740  -10.8737   18.0482 C   0  0  0  0  0  0  0  0  0  0  0  0
    5.6751  -10.5870   29.7637 O   0  0  0  0  0  0  0  0  0  0  0  0
    1.7612   -5.6483   26.7172 C   0  0  0  0  0  0  0  0  0  0  0  0
    0.2221   -9.8326   17.4055 C   0  0  0  0  0  0  0  0  0  0  0  0
    4.3850   -9.0730   28.6745 C   0  0  0  0  0  0  0  0  0  0  0  0
  1  7  4  0
  1 22  4  0
  2 17  4  0
  2 20  4  0
  2 28  4  0
  3  6  1  0
  3 19  1  0
  4 19  1  0
  4 26  1  0
  5 17  4  0
  5 18  4  0
  6 20  1  0
  6 26  1  0
  7 24  4  0
  8 15  4  0
  8 24  4  0
  9 14  4  0
  9 21  4  0
 10 12  4  0
 10 27  4  0
 11 12  4  0
 11 23  4  0
 13 23  4  0
 13 27  4  0
 14 20  4  0
 15 22  4  0
 16 18  4  0
 16 25  2  0
 16 28  4  0
 21 28  4  0
 24 27  1  0
M  END
$$$$

 Created by Python create_sdf_string function

 28 31  0  0  0  0  0  0  0  0999 V2000
   -1.0054  -13.0622   19.1198 C   0  0  0  0  0  0  0  0  0  0  0  0
    3.1478   -8.5360   28.5161 C   0  0  0  0  0  0  0  0  0  0  0  0
    0.5798   -7.1906   27.9330 C   0  0  0  0  0  0  0  0  0  0  0  0
    0.3978   -5.1561   26.6955 C   0  0  0  0  0  0  0  0  0  0  0  0
    2.3063  -10.0533   30.0125 C   0  0  0  0  0  0  0  0  0  0  0  0
    1.8591   -6.8254   27.4685 N   0  0  0  0  0  0  0  0  0  0  0  0
   -0.2167  -12.1055   18.5568 C   0  0  0  0  0  0  0  0  0  0  0  0
   -2.0661  -10.6994   18.1916 C   0  0  0  0  0  0  0  0  0  0  0  0
    5.2703   -7.5691   27.1123 C   0  0  0  0  0  0  0  0  0  0  0  0
    1.6204   -9.9887   17.2935 C   0  0  0  0  0  0  0  0  0  0  0  0
    1.8931   -7.9265   16.2047 C   0  0  0  0  0  0  0  0  0  0  0  0
    2.4396   -9.0801   16.7132 C   0  0  0  0  0  0  0  0  0  0  0  0
   -0.2575   -8.6234   16.8582 C   0  0  0  0  0  0  0  0  0  0  0  0
    4.0614   -7.0367   27.0106 N   0  0  0  0  0  0  0  0  0  0  0  0
   -2.9133  -11.6279   18.7578 C   0  0  0  0  0  0  0  0  0  0  0  0
    4.5688  -10.1291   29.5758 C   0  0  0  0  0  0  0  0  0  0  0  0
    2.1008   -9.0410   29.1852 N   0  0  0  0  0  0  0  0  0  0  0  0
    3.4829  -10.5697   30.2091 N   0  0  0  0  0  0  0  0  0  0  0  0
   -0.3363   -6.1172   27.5628 C   0  0  0  0  0  0  0  0  0  0  0  0
    3.0331   -7.4400   27.6362 C   0  0  0  0  0  0  0  0  0  0  0  0
    5.4553   -8.5933   27.9644 C   0  0  0  0  0  0  0  0  0  0  0  0
   -2.3870  -12.8440   19.2512 C   0  0  0  0  0  0  0  0  0  0  0  0
    0.5331   -7.6964   16.2751 C   0  0  0  0  0  0  0  0  0  0  0  0
   -0.6740  -10.8737   18.0482 C   0  0  0  0  0  0  0  0  0  0  0  0
    5.6751  -10.5870   29.7637 O   0  0  0  0  0  0  0  0  0  0  0  0
    1.7612   -5.6483   26.7172 C   0  0  0  0  0  0  0  0  0  0  0  0
    0.2221   -9.8326   17.4055 C   0  0  0  0  0  0  0  0  0  0  0  0
    4.3850   -9.0730   28.6745 C   0  0  0  0  0  0  0  0  0  0  0  0
  1  7  4  0
  1 22  4  0
  2 17  4  0
  2 20  4  0
  2 28  4  0
  3  6  1  0
  3 19  1  0
  4 19  1  0
  4 26  1  0
  5 17  4  0
  5 18  4  0
  6 20  1  0
  6 26  1  0
  7 24  4  0
  8 15  4  0
  8 24  4  0
  9 14  4  0
  9 21  4  0
 10 12  4  0
 10 27  4  0
 11 12  4  0
 11 23  4  0
 13 23  4  0
 13 27  4  0
 14 20  4  0
 15 22  4  0
 16 18  4  0
 16 25  2  0
 16 28  4  0
 21 28  4  0
 24 27  1  0
M  END
$$$$

 Created by Python create_sdf_string function

 28 31  0  0  0  0  0  0  0  0999 V2000
   -1.0054  -13.0622   19.1198 C   0  0  0  0  0  0  0  0  0  0  0  0
    3.1478   -8.5360   28.5161 C   0  0  0  0  0  0  0  0  0  0  0  0
    0.5798   -7.1906   27.9330 C   0  0  0  0  0  0  0  0  0  0  0  0
    0.3978   -5.1561   26.6955 C   0  0  0  0  0  0  0  0  0  0  0  0
    2.3063  -10.0533   30.0125 C   0  0  0  0  0  0  0  0  0  0  0  0
    1.8591   -6.8254   27.4685 N   0  0  0  0  0  0  0  0  0  0  0  0
   -0.2167  -12.1055   18.5568 C   0  0  0  0  0  0  0  0  0  0  0  0
   -2.0661  -10.6994   18.1916 C   0  0  0  0  0  0  0  0  0  0  0  0
    5.2703   -7.5691   27.1123 C   0  0  0  0  0  0  0  0  0  0  0  0
    1.6204   -9.9887   17.2935 C   0  0  0  0  0  0  0  0  0  0  0  0
    1.8931   -7.9265   16.2047 C   0  0  0  0  0  0  0  0  0  0  0  0
    2.4396   -9.0801   16.7132 C   0  0  0  0  0  0  0  0  0  0  0  0
   -0.2575   -8.6234   16.8582 C   0  0  0  0  0  0  0  0  0  0  0  0
    4.0614   -7.0367   27.0106 N   0  0  0  0  0  0  0  0  0  0  0  0
   -2.9133  -11.6279   18.7578 C   0  0  0  0  0  0  0  0  0  0  0  0
    4.5688  -10.1291   29.5758 C   0  0  0  0  0  0  0  0  0  0  0  0
    2.1008   -9.0410   29.1852 N   0  0  0  0  0  0  0  0  0  0  0  0
    3.4829  -10.5697   30.2091 N   0  0  0  0  0  0  0  0  0  0  0  0
   -0.3363   -6.1172   27.5628 C   0  0  0  0  0  0  0  0  0  0  0  0
    3.0331   -7.4400   27.6362 C   0  0  0  0  0  0  0  0  0  0  0  0
    5.4553   -8.5933   27.9644 C   0  0  0  0  0  0  0  0  0  0  0  0
   -2.3870  -12.8440   19.2512 C   0  0  0  0  0  0  0  0  0  0  0  0
    0.5331   -7.6964   16.2751 C   0  0  0  0  0  0  0  0  0  0  0  0
   -0.6740  -10.8737   18.0482 C   0  0  0  0  0  0  0  0  0  0  0  0
    5.6751  -10.5870   29.7637 O   0  0  0  0  0  0  0  0  0  0  0  0
    1.7612   -5.6483   26.7172 C   0  0  0  0  0  0  0  0  0  0  0  0
    0.2221   -9.8326   17.4055 C   0  0  0  0  0  0  0  0  0  0  0  0
    4.3850   -9.0730   28.6745 C   0  0  0  0  0  0  0  0  0  0  0  0
  1  7  4  0
  1 22  4  0
  2 17  4  0
  2 20  4  0
  2 28  4  0
  3  6  1  0
  3 19  1  0
  4 19  1  0
  4 26  1  0
  5 17  4  0
  5 18  4  0
  6 20  1  0
  6 26  1  0
  7 24  4  0
  8 15  4  0
  8 24  4  0
  9 14  4  0
  9 21  4  0
 10 12  4  0
 10 27  4  0
 11 12  4  0
 11 23  4  0
 13 23  4  0
 13 27  4  0
 14 20  4  0
 15 22  4  0
 16 18  4  0
 16 25  2  0
 16 28  4  0
 21 28  4  0
 24 27  1  0
M  END
$$$$

 Created by Python create_sdf_string function

 28 31  0  0  0  0  0  0  0  0999 V2000
   -1.0054  -13.0622   19.1198 C   0  0  0  0  0  0  0  0  0  0  0  0
    3.1478   -8.5360   28.5161 C   0  0  0  0  0  0  0  0  0  0  0  0
    0.5798   -7.1906   27.9330 C   0  0  0  0  0  0  0  0  0  0  0  0
    0.3978   -5.1561   26.6955 C   0  0  0  0  0  0  0  0  0  0  0  0
    2.3063  -10.0533   30.0125 C   0  0  0  0  0  0  0  0  0  0  0  0
    1.8591   -6.8254   27.4685 N   0  0  0  0  0  0  0  0  0  0  0  0
   -0.2167  -12.1055   18.5568 C   0  0  0  0  0  0  0  0  0  0  0  0
   -2.0661  -10.6994   18.1916 C   0  0  0  0  0  0  0  0  0  0  0  0
    5.2703   -7.5691   27.1123 C   0  0  0  0  0  0  0  0  0  0  0  0
    1.6204   -9.9887   17.2935 C   0  0  0  0  0  0  0  0  0  0  0  0
    1.8931   -7.9265   16.2047 C   0  0  0  0  0  0  0  0  0  0  0  0
    2.4396   -9.0801   16.7132 C   0  0  0  0  0  0  0  0  0  0  0  0
   -0.2575   -8.6234   16.8582 C   0  0  0  0  0  0  0  0  0  0  0  0
    4.0614   -7.0367   27.0106 N   0  0  0  0  0  0  0  0  0  0  0  0
   -2.9133  -11.6279   18.7578 C   0  0  0  0  0  0  0  0  0  0  0  0
    4.5688  -10.1291   29.5758 C   0  0  0  0  0  0  0  0  0  0  0  0
    2.1008   -9.0410   29.1852 N   0  0  0  0  0  0  0  0  0  0  0  0
    3.4829  -10.5697   30.2091 N   0  0  0  0  0  0  0  0  0  0  0  0
   -0.3363   -6.1172   27.5628 C   0  0  0  0  0  0  0  0  0  0  0  0
    3.0331   -7.4400   27.6362 C   0  0  0  0  0  0  0  0  0  0  0  0
    5.4553   -8.5933   27.9644 C   0  0  0  0  0  0  0  0  0  0  0  0
   -2.3870  -12.8440   19.2512 C   0  0  0  0  0  0  0  0  0  0  0  0
    0.5331   -7.6964   16.2751 C   0  0  0  0  0  0  0  0  0  0  0  0
   -0.6740  -10.8737   18.0482 C   0  0  0  0  0  0  0  0  0  0  0  0
    5.6751  -10.5870   29.7637 O   0  0  0  0  0  0  0  0  0  0  0  0
    1.7612   -5.6483   26.7172 C   0  0  0  0  0  0  0  0  0  0  0  0
    0.2221   -9.8326   17.4055 C   0  0  0  0  0  0  0  0  0  0  0  0
    4.3850   -9.0730   28.6745 C   0  0  0  0  0  0  0  0  0  0  0  0
  1  7  4  0
  1 22  4  0
  2 17  4  0
  2 20  4  0
  2 28  4  0
  3  6  1  0
  3 19  1  0
  4 19  1  0
  4 26  1  0
  5 17  4  0
  5 18  4  0
  6 20  1  0
  6 26  1  0
  7 24  4  0
  8 15  4  0
  8 24  4  0
  9 14  4  0
  9 21  4  0
 10 12  4  0
 10 27  4  0
 11 12  4  0
 11 23  4  0
 13 23  4  0
 13 27  4  0
 14 20  4  0
 15 22  4  0
 16 18  4  0
 16 25  2  0
 16 28  4  0
 21 28  4  0
 24 27  1  0
M  END
$$$$

 Created by Python create_sdf_string function

 28 31  0  0  0  0  0  0  0  0999 V2000
   -1.0054  -13.0622   19.1198 C   0  0  0  0  0  0  0  0  0  0  0  0
    3.1478   -8.5360   28.5161 C   0  0  0  0  0  0  0  0  0  0  0  0
    0.5798   -7.1906   27.9330 C   0  0  0  0  0  0  0  0  0  0  0  0
    0.3978   -5.1561   26.6955 C   0  0  0  0  0  0  0  0  0  0  0  0
    2.3063  -10.0533   30.0125 C   0  0  0  0  0  0  0  0  0  0  0  0
    1.8591   -6.8254   27.4685 N   0  0  0  0  0  0  0  0  0  0  0  0
   -0.2167  -12.1055   18.5568 C   0  0  0  0  0  0  0  0  0  0  0  0
   -2.0661  -10.6994   18.1916 C   0  0  0  0  0  0  0  0  0  0  0  0
    5.2703   -7.5691   27.1123 C   0  0  0  0  0  0  0  0  0  0  0  0
    1.6204   -9.9887   17.2935 C   0  0  0  0  0  0  0  0  0  0  0  0
    1.8931   -7.9265   16.2047 C   0  0  0  0  0  0  0  0  0  0  0  0
    2.4396   -9.0801   16.7132 C   0  0  0  0  0  0  0  0  0  0  0  0
   -0.2575   -8.6234   16.8582 C   0  0  0  0  0  0  0  0  0  0  0  0
    4.0614   -7.0367   27.0106 N   0  0  0  0  0  0  0  0  0  0  0  0
   -2.9133  -11.6279   18.7578 C   0  0  0  0  0  0  0  0  0  0  0  0
    4.5688  -10.1291   29.5758 C   0  0  0  0  0  0  0  0  0  0  0  0
    2.1008   -9.0410   29.1852 N   0  0  0  0  0  0  0  0  0  0  0  0
    3.4829  -10.5697   30.2091 N   0  0  0  0  0  0  0  0  0  0  0  0
   -0.3363   -6.1172   27.5628 C   0  0  0  0  0  0  0  0  0  0  0  0
    3.0331   -7.4400   27.6362 C   0  0  0  0  0  0  0  0  0  0  0  0
    5.4553   -8.5933   27.9644 C   0  0  0  0  0  0  0  0  0  0  0  0
   -2.3870  -12.8440   19.2512 C   0  0  0  0  0  0  0  0  0  0  0  0
    0.5331   -7.6964   16.2751 C   0  0  0  0  0  0  0  0  0  0  0  0
   -0.6740  -10.8737   18.0482 C   0  0  0  0  0  0  0  0  0  0  0  0
    5.6751  -10.5870   29.7637 O   0  0  0  0  0  0  0  0  0  0  0  0
    1.7612   -5.6483   26.7172 C   0  0  0  0  0  0  0  0  0  0  0  0
    0.2221   -9.8326   17.4055 C   0  0  0  0  0  0  0  0  0  0  0  0
    4.3850   -9.0730   28.6745 C   0  0  0  0  0  0  0  0  0  0  0  0
  1  7  4  0
  1 22  4  0
  2 17  4  0
  2 20  4  0
  2 28  4  0
  3  6  1  0
  3 19  1  0
  4 19  1  0
  4 26  1  0
  5 17  4  0
  5 18  4  0
  6 20  1  0
  6 26  1  0
  7 24  4  0
  8 15  4  0
  8 24  4  0
  9 14  4  0
  9 21  4  0
 10 12  4  0
 10 27  4  0
 11 12  4  0
 11 23  4  0
 13 23  4  0
 13 27  4  0
 14 20  4  0
 15 22  4  0
 16 18  4  0
 16 25  2  0
 16 28  4  0
 21 28  4  0
 24 27  1  0
M  END
$$$$

 Created by Python create_sdf_string function

 28 31  0  0  0  0  0  0  0  0999 V2000
   -1.0054  -13.0622   19.1198 C   0  0  0  0  0  0  0  0  0  0  0  0
    3.1478   -8.5360   28.5161 C   0  0  0  0  0  0  0  0  0  0  0  0
    0.5798   -7.1906   27.9330 C   0  0  0  0  0  0  0  0  0  0  0  0
    0.3978   -5.1561   26.6955 C   0  0  0  0  0  0  0  0  0  0  0  0
    2.3063  -10.0533   30.0125 C   0  0  0  0  0  0  0  0  0  0  0  0
    1.8591   -6.8254   27.4685 N   0  0  0  0  0  0  0  0  0  0  0  0
   -0.2167  -12.1055   18.5568 C   0  0  0  0  0  0  0  0  0  0  0  0
   -2.0661  -10.6994   18.1916 C   0  0  0  0  0  0  0  0  0  0  0  0
    5.2703   -7.5691   27.1123 C   0  0  0  0  0  0  0  0  0  0  0  0
    1.6204   -9.9887   17.2935 C   0  0  0  0  0  0  0  0  0  0  0  0
    1.8931   -7.9265   16.2047 C   0  0  0  0  0  0  0  0  0  0  0  0
    2.4396   -9.0801   16.7132 C   0  0  0  0  0  0  0  0  0  0  0  0
   -0.2575   -8.6234   16.8582 C   0  0  0  0  0  0  0  0  0  0  0  0
    4.0614   -7.0367   27.0106 N   0  0  0  0  0  0  0  0  0  0  0  0
   -2.9133  -11.6279   18.7578 C   0  0  0  0  0  0  0  0  0  0  0  0
    4.5688  -10.1291   29.5758 C   0  0  0  0  0  0  0  0  0  0  0  0
    2.1008   -9.0410   29.1852 N   0  0  0  0  0  0  0  0  0  0  0  0
    3.4829  -10.5697   30.2091 N   0  0  0  0  0  0  0  0  0  0  0  0
   -0.3363   -6.1172   27.5628 C   0  0  0  0  0  0  0  0  0  0  0  0
    3.0331   -7.4400   27.6362 C   0  0  0  0  0  0  0  0  0  0  0  0
    5.4553   -8.5933   27.9644 C   0  0  0  0  0  0  0  0  0  0  0  0
   -2.3870  -12.8440   19.2512 C   0  0  0  0  0  0  0  0  0  0  0  0
    0.5331   -7.6964   16.2751 C   0  0  0  0  0  0  0  0  0  0  0  0
   -0.6740  -10.8737   18.0482 C   0  0  0  0  0  0  0  0  0  0  0  0
    5.6751  -10.5870   29.7637 O   0  0  0  0  0  0  0  0  0  0  0  0
    1.7612   -5.6483   26.7172 C   0  0  0  0  0  0  0  0  0  0  0  0
    0.2221   -9.8326   17.4055 C   0  0  0  0  0  0  0  0  0  0  0  0
    4.3850   -9.0730   28.6745 C   0  0  0  0  0  0  0  0  0  0  0  0
  1  7  4  0
  1 22  4  0
  2 17  4  0
  2 20  4  0
  2 28  4  0
  3  6  1  0
  3 19  1  0
  4 19  1  0
  4 26  1  0
  5 17  4  0
  5 18  4  0
  6 20  1  0
  6 26  1  0
  7 24  4  0
  8 15  4  0
  8 24  4  0
  9 14  4  0
  9 21  4  0
 10 12  4  0
 10 27  4  0
 11 12  4  0
 11 23  4  0
 13 23  4  0
 13 27  4  0
 14 20  4  0
 15 22  4  0
 16 18  4  0
 16 25  2  0
 16 28  4  0
 21 28  4  0
 24 27  1  0
M  END
$$$$

 Created by Python create_sdf_string function

 28 31  0  0  0  0  0  0  0  0999 V2000
   -1.0054  -13.0622   19.1198 C   0  0  0  0  0  0  0  0  0  0  0  0
    3.1478   -8.5360   28.5161 C   0  0  0  0  0  0  0  0  0  0  0  0
    0.5798   -7.1906   27.9330 C   0  0  0  0  0  0  0  0  0  0  0  0
    0.3978   -5.1561   26.6955 C   0  0  0  0  0  0  0  0  0  0  0  0
    2.3063  -10.0533   30.0125 C   0  0  0  0  0  0  0  0  0  0  0  0
    1.8591   -6.8254   27.4685 N   0  0  0  0  0  0  0  0  0  0  0  0
   -0.2167  -12.1055   18.5568 C   0  0  0  0  0  0  0  0  0  0  0  0
   -2.0661  -10.6994   18.1916 C   0  0  0  0  0  0  0  0  0  0  0  0
    5.2703   -7.5691   27.1123 C   0  0  0  0  0  0  0  0  0  0  0  0
    1.6204   -9.9887   17.2935 C   0  0  0  0  0  0  0  0  0  0  0  0
    1.8931   -7.9265   16.2047 C   0  0  0  0  0  0  0  0  0  0  0  0
    2.4396   -9.0801   16.7132 C   0  0  0  0  0  0  0  0  0  0  0  0
   -0.2575   -8.6234   16.8582 C   0  0  0  0  0  0  0  0  0  0  0  0
    4.0614   -7.0367   27.0106 N   0  0  0  0  0  0  0  0  0  0  0  0
   -2.9133  -11.6279   18.7578 C   0  0  0  0  0  0  0  0  0  0  0  0
    4.5688  -10.1291   29.5758 C   0  0  0  0  0  0  0  0  0  0  0  0
    2.1008   -9.0410   29.1852 N   0  0  0  0  0  0  0  0  0  0  0  0
    3.4829  -10.5697   30.2091 N   0  0  0  0  0  0  0  0  0  0  0  0
   -0.3363   -6.1172   27.5628 C   0  0  0  0  0  0  0  0  0  0  0  0
    3.0331   -7.4400   27.6362 C   0  0  0  0  0  0  0  0  0  0  0  0
    5.4553   -8.5933   27.9644 C   0  0  0  0  0  0  0  0  0  0  0  0
   -2.3870  -12.8440   19.2512 C   0  0  0  0  0  0  0  0  0  0  0  0
    0.5331   -7.6964   16.2751 C   0  0  0  0  0  0  0  0  0  0  0  0
   -0.6740  -10.8737   18.0482 C   0  0  0  0  0  0  0  0  0  0  0  0
    5.6751  -10.5870   29.7637 O   0  0  0  0  0  0  0  0  0  0  0  0
    1.7612   -5.6483   26.7172 C   0  0  0  0  0  0  0  0  0  0  0  0
    0.2221   -9.8326   17.4055 C   0  0  0  0  0  0  0  0  0  0  0  0
    4.3850   -9.0730   28.6745 C   0  0  0  0  0  0  0  0  0  0  0  0
  1  7  4  0
  1 22  4  0
  2 17  4  0
  2 20  4  0
  2 28  4  0
  3  6  1  0
  3 19  1  0
  4 19  1  0
  4 26  1  0
  5 17  4  0
  5 18  4  0
  6 20  1  0
  6 26  1  0
  7 24  4  0
  8 15  4  0
  8 24  4  0
  9 14  4  0
  9 21  4  0
 10 12  4  0
 10 27  4  0
 11 12  4  0
 11 23  4  0
 13 23  4  0
 13 27  4  0
 14 20  4  0
 15 22  4  0
 16 18  4  0
 16 25  2  0
 16 28  4  0
 21 28  4  0
 24 27  1  0
M  END
$$$$

 Created by Python create_sdf_string function

 28 31  0  0  0  0  0  0  0  0999 V2000
   -1.0054  -13.0622   19.1198 C   0  0  0  0  0  0  0  0  0  0  0  0
    3.1478   -8.5360   28.5161 C   0  0  0  0  0  0  0  0  0  0  0  0
    0.5798   -7.1906   27.9330 C   0  0  0  0  0  0  0  0  0  0  0  0
    0.3978   -5.1561   26.6955 C   0  0  0  0  0  0  0  0  0  0  0  0
    2.3063  -10.0533   30.0125 C   0  0  0  0  0  0  0  0  0  0  0  0
    1.8591   -6.8254   27.4685 N   0  0  0  0  0  0  0  0  0  0  0  0
   -0.2167  -12.1055   18.5568 C   0  0  0  0  0  0  0  0  0  0  0  0
   -2.0661  -10.6994   18.1916 C   0  0  0  0  0  0  0  0  0  0  0  0
    5.2703   -7.5691   27.1123 C   0  0  0  0  0  0  0  0  0  0  0  0
    1.6204   -9.9887   17.2935 C   0  0  0  0  0  0  0  0  0  0  0  0
    1.8931   -7.9265   16.2047 C   0  0  0  0  0  0  0  0  0  0  0  0
    2.4396   -9.0801   16.7132 C   0  0  0  0  0  0  0  0  0  0  0  0
   -0.2575   -8.6234   16.8582 C   0  0  0  0  0  0  0  0  0  0  0  0
    4.0614   -7.0367   27.0106 N   0  0  0  0  0  0  0  0  0  0  0  0
   -2.9133  -11.6279   18.7578 C   0  0  0  0  0  0  0  0  0  0  0  0
    4.5688  -10.1291   29.5758 C   0  0  0  0  0  0  0  0  0  0  0  0
    2.1008   -9.0410   29.1852 N   0  0  0  0  0  0  0  0  0  0  0  0
    3.4829  -10.5697   30.2091 N   0  0  0  0  0  0  0  0  0  0  0  0
   -0.3363   -6.1172   27.5628 C   0  0  0  0  0  0  0  0  0  0  0  0
    3.0331   -7.4400   27.6362 C   0  0  0  0  0  0  0  0  0  0  0  0
    5.4553   -8.5933   27.9644 C   0  0  0  0  0  0  0  0  0  0  0  0
   -2.3870  -12.8440   19.2512 C   0  0  0  0  0  0  0  0  0  0  0  0
    0.5331   -7.6964   16.2751 C   0  0  0  0  0  0  0  0  0  0  0  0
   -0.6740  -10.8737   18.0482 C   0  0  0  0  0  0  0  0  0  0  0  0
    5.6751  -10.5870   29.7637 O   0  0  0  0  0  0  0  0  0  0  0  0
    1.7612   -5.6483   26.7172 C   0  0  0  0  0  0  0  0  0  0  0  0
    0.2221   -9.8326   17.4055 C   0  0  0  0  0  0  0  0  0  0  0  0
    4.3850   -9.0730   28.6745 C   0  0  0  0  0  0  0  0  0  0  0  0
  1  7  4  0
  1 22  4  0
  2 17  4  0
  2 20  4  0
  2 28  4  0
  3  6  1  0
  3 19  1  0
  4 19  1  0
  4 26  1  0
  5 17  4  0
  5 18  4  0
  6 20  1  0
  6 26  1  0
  7 24  4  0
  8 15  4  0
  8 24  4  0
  9 14  4  0
  9 21  4  0
 10 12  4  0
 10 27  4  0
 11 12  4  0
 11 23  4  0
 13 23  4  0
 13 27  4  0
 14 20  4  0
 15 22  4  0
 16 18  4  0
 16 25  2  0
 16 28  4  0
 21 28  4  0
 24 27  1  0
M  END
$$$$

 Created by Python create_sdf_string function

 28 31  0  0  0  0  0  0  0  0999 V2000
   -1.0054  -13.0622   19.1198 C   0  0  0  0  0  0  0  0  0  0  0  0
    3.1478   -8.5360   28.5161 C   0  0  0  0  0  0  0  0  0  0  0  0
    0.5798   -7.1906   27.9330 C   0  0  0  0  0  0  0  0  0  0  0  0
    0.3978   -5.1561   26.6955 C   0  0  0  0  0  0  0  0  0  0  0  0
    2.3063  -10.0533   30.0125 C   0  0  0  0  0  0  0  0  0  0  0  0
    1.8591   -6.8254   27.4685 N   0  0  0  0  0  0  0  0  0  0  0  0
   -0.2167  -12.1055   18.5568 C   0  0  0  0  0  0  0  0  0  0  0  0
   -2.0661  -10.6994   18.1916 C   0  0  0  0  0  0  0  0  0  0  0  0
    5.2703   -7.5691   27.1123 C   0  0  0  0  0  0  0  0  0  0  0  0
    1.6204   -9.9887   17.2935 C   0  0  0  0  0  0  0  0  0  0  0  0
    1.8931   -7.9265   16.2047 C   0  0  0  0  0  0  0  0  0  0  0  0
    2.4396   -9.0801   16.7132 C   0  0  0  0  0  0  0  0  0  0  0  0
   -0.2575   -8.6234   16.8582 C   0  0  0  0  0  0  0  0  0  0  0  0
    4.0614   -7.0367   27.0106 N   0  0  0  0  0  0  0  0  0  0  0  0
   -2.9133  -11.6279   18.7578 C   0  0  0  0  0  0  0  0  0  0  0  0
    4.5688  -10.1291   29.5758 C   0  0  0  0  0  0  0  0  0  0  0  0
    2.1008   -9.0410   29.1852 N   0  0  0  0  0  0  0  0  0  0  0  0
    3.4829  -10.5697   30.2091 N   0  0  0  0  0  0  0  0  0  0  0  0
   -0.3363   -6.1172   27.5628 C   0  0  0  0  0  0  0  0  0  0  0  0
    3.0331   -7.4400   27.6362 C   0  0  0  0  0  0  0  0  0  0  0  0
    5.4553   -8.5933   27.9644 C   0  0  0  0  0  0  0  0  0  0  0  0
   -2.3870  -12.8440   19.2512 C   0  0  0  0  0  0  0  0  0  0  0  0
    0.5331   -7.6964   16.2751 C   0  0  0  0  0  0  0  0  0  0  0  0
   -0.6740  -10.8737   18.0482 C   0  0  0  0  0  0  0  0  0  0  0  0
    5.6751  -10.5870   29.7637 O   0  0  0  0  0  0  0  0  0  0  0  0
    1.7612   -5.6483   26.7172 C   0  0  0  0  0  0  0  0  0  0  0  0
    0.2221   -9.8326   17.4055 C   0  0  0  0  0  0  0  0  0  0  0  0
    4.3850   -9.0730   28.6745 C   0  0  0  0  0  0  0  0  0  0  0  0
  1  7  4  0
  1 22  4  0
  2 17  4  0
  2 20  4  0
  2 28  4  0
  3  6  1  0
  3 19  1  0
  4 19  1  0
  4 26  1  0
  5 17  4  0
  5 18  4  0
  6 20  1  0
  6 26  1  0
  7 24  4  0
  8 15  4  0
  8 24  4  0
  9 14  4  0
  9 21  4  0
 10 12  4  0
 10 27  4  0
 11 12  4  0
 11 23  4  0
 13 23  4  0
 13 27  4  0
 14 20  4  0
 15 22  4  0
 16 18  4  0
 16 25  2  0
 16 28  4  0
 21 28  4  0
 24 27  1  0
M  END
$$$$

 Created by Python create_sdf_string function

 28 31  0  0  0  0  0  0  0  0999 V2000
   -1.0054  -13.0622   19.1198 C   0  0  0  0  0  0  0  0  0  0  0  0
    3.1478   -8.5360   28.5161 C   0  0  0  0  0  0  0  0  0  0  0  0
    0.5798   -7.1906   27.9330 C   0  0  0  0  0  0  0  0  0  0  0  0
    0.3978   -5.1561   26.6955 C   0  0  0  0  0  0  0  0  0  0  0  0
    2.3063  -10.0533   30.0125 C   0  0  0  0  0  0  0  0  0  0  0  0
    1.8591   -6.8254   27.4685 N   0  0  0  0  0  0  0  0  0  0  0  0
   -0.2167  -12.1055   18.5568 C   0  0  0  0  0  0  0  0  0  0  0  0
   -2.0661  -10.6994   18.1916 C   0  0  0  0  0  0  0  0  0  0  0  0
    5.2703   -7.5691   27.1123 C   0  0  0  0  0  0  0  0  0  0  0  0
    1.6204   -9.9887   17.2935 C   0  0  0  0  0  0  0  0  0  0  0  0
    1.8931   -7.9265   16.2047 C   0  0  0  0  0  0  0  0  0  0  0  0
    2.4396   -9.0801   16.7132 C   0  0  0  0  0  0  0  0  0  0  0  0
   -0.2575   -8.6234   16.8582 C   0  0  0  0  0  0  0  0  0  0  0  0
    4.0614   -7.0367   27.0106 N   0  0  0  0  0  0  0  0  0  0  0  0
   -2.9133  -11.6279   18.7578 C   0  0  0  0  0  0  0  0  0  0  0  0
    4.5688  -10.1291   29.5758 C   0  0  0  0  0  0  0  0  0  0  0  0
    2.1008   -9.0410   29.1852 N   0  0  0  0  0  0  0  0  0  0  0  0
    3.4829  -10.5697   30.2091 N   0  0  0  0  0  0  0  0  0  0  0  0
   -0.3363   -6.1172   27.5628 C   0  0  0  0  0  0  0  0  0  0  0  0
    3.0331   -7.4400   27.6362 C   0  0  0  0  0  0  0  0  0  0  0  0
    5.4553   -8.5933   27.9644 C   0  0  0  0  0  0  0  0  0  0  0  0
   -2.3870  -12.8440   19.2512 C   0  0  0  0  0  0  0  0  0  0  0  0
    0.5331   -7.6964   16.2751 C   0  0  0  0  0  0  0  0  0  0  0  0
   -0.6740  -10.8737   18.0482 C   0  0  0  0  0  0  0  0  0  0  0  0
    5.6751  -10.5870   29.7637 O   0  0  0  0  0  0  0  0  0  0  0  0
    1.7612   -5.6483   26.7172 C   0  0  0  0  0  0  0  0  0  0  0  0
    0.2221   -9.8326   17.4055 C   0  0  0  0  0  0  0  0  0  0  0  0
    4.3850   -9.0730   28.6745 C   0  0  0  0  0  0  0  0  0  0  0  0
  1  7  4  0
  1 22  4  0
  2 17  4  0
  2 20  4  0
  2 28  4  0
  3  6  1  0
  3 19  1  0
  4 19  1  0
  4 26  1  0
  5 17  4  0
  5 18  4  0
  6 20  1  0
  6 26  1  0
  7 24  4  0
  8 15  4  0
  8 24  4  0
  9 14  4  0
  9 21  4  0
 10 12  4  0
 10 27  4  0
 11 12  4  0
 11 23  4  0
 13 23  4  0
 13 27  4  0
 14 20  4  0
 15 22  4  0
 16 18  4  0
 16 25  2  0
 16 28  4  0
 21 28  4  0
 24 27  1  0
M  END
$$$$

 Created by Python create_sdf_string function

 28 31  0  0  0  0  0  0  0  0999 V2000
   -1.0054  -13.0622   19.1198 C   0  0  0  0  0  0  0  0  0  0  0  0
    3.1478   -8.5360   28.5161 C   0  0  0  0  0  0  0  0  0  0  0  0
    0.5798   -7.1906   27.9330 C   0  0  0  0  0  0  0  0  0  0  0  0
    0.3978   -5.1561   26.6955 C   0  0  0  0  0  0  0  0  0  0  0  0
    2.3063  -10.0533   30.0125 C   0  0  0  0  0  0  0  0  0  0  0  0
    1.8591   -6.8254   27.4685 N   0  0  0  0  0  0  0  0  0  0  0  0
   -0.2167  -12.1055   18.5568 C   0  0  0  0  0  0  0  0  0  0  0  0
   -2.0661  -10.6994   18.1916 C   0  0  0  0  0  0  0  0  0  0  0  0
    5.2703   -7.5691   27.1123 C   0  0  0  0  0  0  0  0  0  0  0  0
    1.6204   -9.9887   17.2935 C   0  0  0  0  0  0  0  0  0  0  0  0
    1.8931   -7.9265   16.2047 C   0  0  0  0  0  0  0  0  0  0  0  0
    2.4396   -9.0801   16.7132 C   0  0  0  0  0  0  0  0  0  0  0  0
   -0.2575   -8.6234   16.8582 C   0  0  0  0  0  0  0  0  0  0  0  0
    4.0614   -7.0367   27.0106 N   0  0  0  0  0  0  0  0  0  0  0  0
   -2.9133  -11.6279   18.7578 C   0  0  0  0  0  0  0  0  0  0  0  0
    4.5688  -10.1291   29.5758 C   0  0  0  0  0  0  0  0  0  0  0  0
    2.1008   -9.0410   29.1852 N   0  0  0  0  0  0  0  0  0  0  0  0
    3.4829  -10.5697   30.2091 N   0  0  0  0  0  0  0  0  0  0  0  0
   -0.3363   -6.1172   27.5628 C   0  0  0  0  0  0  0  0  0  0  0  0
    3.0331   -7.4400   27.6362 C   0  0  0  0  0  0  0  0  0  0  0  0
    5.4553   -8.5933   27.9644 C   0  0  0  0  0  0  0  0  0  0  0  0
   -2.3870  -12.8440   19.2512 C   0  0  0  0  0  0  0  0  0  0  0  0
    0.5331   -7.6964   16.2751 C   0  0  0  0  0  0  0  0  0  0  0  0
   -0.6740  -10.8737   18.0482 C   0  0  0  0  0  0  0  0  0  0  0  0
    5.6751  -10.5870   29.7637 O   0  0  0  0  0  0  0  0  0  0  0  0
    1.7612   -5.6483   26.7172 C   0  0  0  0  0  0  0  0  0  0  0  0
    0.2221   -9.8326   17.4055 C   0  0  0  0  0  0  0  0  0  0  0  0
    4.3850   -9.0730   28.6745 C   0  0  0  0  0  0  0  0  0  0  0  0
  1  7  4  0
  1 22  4  0
  2 17  4  0
  2 20  4  0
  2 28  4  0
  3  6  1  0
  3 19  1  0
  4 19  1  0
  4 26  1  0
  5 17  4  0
  5 18  4  0
  6 20  1  0
  6 26  1  0
  7 24  4  0
  8 15  4  0
  8 24  4  0
  9 14  4  0
  9 21  4  0
 10 12  4  0
 10 27  4  0
 11 12  4  0
 11 23  4  0
 13 23  4  0
 13 27  4  0
 14 20  4  0
 15 22  4  0
 16 18  4  0
 16 25  2  0
 16 28  4  0
 21 28  4  0
 24 27  1  0
M  END
$$$$

 Created by Python create_sdf_string function

 28 31  0  0  0  0  0  0  0  0999 V2000
   -1.0054  -13.0622   19.1198 C   0  0  0  0  0  0  0  0  0  0  0  0
    3.1478   -8.5360   28.5161 C   0  0  0  0  0  0  0  0  0  0  0  0
    0.5798   -7.1906   27.9330 C   0  0  0  0  0  0  0  0  0  0  0  0
    0.3978   -5.1561   26.6955 C   0  0  0  0  0  0  0  0  0  0  0  0
    2.3063  -10.0533   30.0125 C   0  0  0  0  0  0  0  0  0  0  0  0
    1.8591   -6.8254   27.4685 N   0  0  0  0  0  0  0  0  0  0  0  0
   -0.2167  -12.1055   18.5568 C   0  0  0  0  0  0  0  0  0  0  0  0
   -2.0661  -10.6994   18.1916 C   0  0  0  0  0  0  0  0  0  0  0  0
    5.2703   -7.5691   27.1123 C   0  0  0  0  0  0  0  0  0  0  0  0
    1.6204   -9.9887   17.2935 C   0  0  0  0  0  0  0  0  0  0  0  0
    1.8931   -7.9265   16.2047 C   0  0  0  0  0  0  0  0  0  0  0  0
    2.4396   -9.0801   16.7132 C   0  0  0  0  0  0  0  0  0  0  0  0
   -0.2575   -8.6234   16.8582 C   0  0  0  0  0  0  0  0  0  0  0  0
    4.0614   -7.0367   27.0106 N   0  0  0  0  0  0  0  0  0  0  0  0
   -2.9133  -11.6279   18.7578 C   0  0  0  0  0  0  0  0  0  0  0  0
    4.5688  -10.1291   29.5758 C   0  0  0  0  0  0  0  0  0  0  0  0
    2.1008   -9.0410   29.1852 N   0  0  0  0  0  0  0  0  0  0  0  0
    3.4829  -10.5697   30.2091 N   0  0  0  0  0  0  0  0  0  0  0  0
   -0.3363   -6.1172   27.5628 C   0  0  0  0  0  0  0  0  0  0  0  0
    3.0331   -7.4400   27.6362 C   0  0  0  0  0  0  0  0  0  0  0  0
    5.4553   -8.5933   27.9644 C   0  0  0  0  0  0  0  0  0  0  0  0
   -2.3870  -12.8440   19.2512 C   0  0  0  0  0  0  0  0  0  0  0  0
    0.5331   -7.6964   16.2751 C   0  0  0  0  0  0  0  0  0  0  0  0
   -0.6740  -10.8737   18.0482 C   0  0  0  0  0  0  0  0  0  0  0  0
    5.6751  -10.5870   29.7637 O   0  0  0  0  0  0  0  0  0  0  0  0
    1.7612   -5.6483   26.7172 C   0  0  0  0  0  0  0  0  0  0  0  0
    0.2221   -9.8326   17.4055 C   0  0  0  0  0  0  0  0  0  0  0  0
    4.3850   -9.0730   28.6745 C   0  0  0  0  0  0  0  0  0  0  0  0
  1  7  4  0
  1 22  4  0
  2 17  4  0
  2 20  4  0
  2 28  4  0
  3  6  1  0
  3 19  1  0
  4 19  1  0
  4 26  1  0
  5 17  4  0
  5 18  4  0
  6 20  1  0
  6 26  1  0
  7 24  4  0
  8 15  4  0
  8 24  4  0
  9 14  4  0
  9 21  4  0
 10 12  4  0
 10 27  4  0
 11 12  4  0
 11 23  4  0
 13 23  4  0
 13 27  4  0
 14 20  4  0
 15 22  4  0
 16 18  4  0
 16 25  2  0
 16 28  4  0
 21 28  4  0
 24 27  1  0
M  END
$$$$

 Created by Python create_sdf_string function

 28 31  0  0  0  0  0  0  0  0999 V2000
   -1.0054  -13.0622   19.1198 C   0  0  0  0  0  0  0  0  0  0  0  0
    3.1478   -8.5360   28.5161 C   0  0  0  0  0  0  0  0  0  0  0  0
    0.5798   -7.1906   27.9330 C   0  0  0  0  0  0  0  0  0  0  0  0
    0.3978   -5.1561   26.6955 C   0  0  0  0  0  0  0  0  0  0  0  0
    2.3063  -10.0533   30.0125 C   0  0  0  0  0  0  0  0  0  0  0  0
    1.8591   -6.8254   27.4685 N   0  0  0  0  0  0  0  0  0  0  0  0
   -0.2167  -12.1055   18.5568 C   0  0  0  0  0  0  0  0  0  0  0  0
   -2.0661  -10.6994   18.1916 C   0  0  0  0  0  0  0  0  0  0  0  0
    5.2703   -7.5691   27.1123 C   0  0  0  0  0  0  0  0  0  0  0  0
    1.6204   -9.9887   17.2935 C   0  0  0  0  0  0  0  0  0  0  0  0
    1.8931   -7.9265   16.2047 C   0  0  0  0  0  0  0  0  0  0  0  0
    2.4396   -9.0801   16.7132 C   0  0  0  0  0  0  0  0  0  0  0  0
   -0.2575   -8.6234   16.8582 C   0  0  0  0  0  0  0  0  0  0  0  0
    4.0614   -7.0367   27.0106 N   0  0  0  0  0  0  0  0  0  0  0  0
   -2.9133  -11.6279   18.7578 C   0  0  0  0  0  0  0  0  0  0  0  0
    4.5688  -10.1291   29.5758 C   0  0  0  0  0  0  0  0  0  0  0  0
    2.1008   -9.0410   29.1852 N   0  0  0  0  0  0  0  0  0  0  0  0
    3.4829  -10.5697   30.2091 N   0  0  0  0  0  0  0  0  0  0  0  0
   -0.3363   -6.1172   27.5628 C   0  0  0  0  0  0  0  0  0  0  0  0
    3.0331   -7.4400   27.6362 C   0  0  0  0  0  0  0  0  0  0  0  0
    5.4553   -8.5933   27.9644 C   0  0  0  0  0  0  0  0  0  0  0  0
   -2.3870  -12.8440   19.2512 C   0  0  0  0  0  0  0  0  0  0  0  0
    0.5331   -7.6964   16.2751 C   0  0  0  0  0  0  0  0  0  0  0  0
   -0.6740  -10.8737   18.0482 C   0  0  0  0  0  0  0  0  0  0  0  0
    5.6751  -10.5870   29.7637 O   0  0  0  0  0  0  0  0  0  0  0  0
    1.7612   -5.6483   26.7172 C   0  0  0  0  0  0  0  0  0  0  0  0
    0.2221   -9.8326   17.4055 C   0  0  0  0  0  0  0  0  0  0  0  0
    4.3850   -9.0730   28.6745 C   0  0  0  0  0  0  0  0  0  0  0  0
  1  7  4  0
  1 22  4  0
  2 17  4  0
  2 20  4  0
  2 28  4  0
  3  6  1  0
  3 19  1  0
  4 19  1  0
  4 26  1  0
  5 17  4  0
  5 18  4  0
  6 20  1  0
  6 26  1  0
  7 24  4  0
  8 15  4  0
  8 24  4  0
  9 14  4  0
  9 21  4  0
 10 12  4  0
 10 27  4  0
 11 12  4  0
 11 23  4  0
 13 23  4  0
 13 27  4  0
 14 20  4  0
 15 22  4  0
 16 18  4  0
 16 25  2  0
 16 28  4  0
 21 28  4  0
 24 27  1  0
M  END
$$$$

 Created by Python create_sdf_string function

 28 31  0  0  0  0  0  0  0  0999 V2000
   -1.0054  -13.0622   19.1198 C   0  0  0  0  0  0  0  0  0  0  0  0
    3.1478   -8.5360   28.5161 C   0  0  0  0  0  0  0  0  0  0  0  0
    0.5798   -7.1906   27.9330 C   0  0  0  0  0  0  0  0  0  0  0  0
    0.3978   -5.1561   26.6955 C   0  0  0  0  0  0  0  0  0  0  0  0
    2.3063  -10.0533   30.0125 C   0  0  0  0  0  0  0  0  0  0  0  0
    1.8591   -6.8254   27.4685 N   0  0  0  0  0  0  0  0  0  0  0  0
   -0.2167  -12.1055   18.5568 C   0  0  0  0  0  0  0  0  0  0  0  0
   -2.0661  -10.6994   18.1916 C   0  0  0  0  0  0  0  0  0  0  0  0
    5.2703   -7.5691   27.1123 C   0  0  0  0  0  0  0  0  0  0  0  0
    1.6204   -9.9887   17.2935 C   0  0  0  0  0  0  0  0  0  0  0  0
    1.8931   -7.9265   16.2047 C   0  0  0  0  0  0  0  0  0  0  0  0
    2.4396   -9.0801   16.7132 C   0  0  0  0  0  0  0  0  0  0  0  0
   -0.2575   -8.6234   16.8582 C   0  0  0  0  0  0  0  0  0  0  0  0
    4.0614   -7.0367   27.0106 N   0  0  0  0  0  0  0  0  0  0  0  0
   -2.9133  -11.6279   18.7578 C   0  0  0  0  0  0  0  0  0  0  0  0
    4.5688  -10.1291   29.5758 C   0  0  0  0  0  0  0  0  0  0  0  0
    2.1008   -9.0410   29.1852 N   0  0  0  0  0  0  0  0  0  0  0  0
    3.4829  -10.5697   30.2091 N   0  0  0  0  0  0  0  0  0  0  0  0
   -0.3363   -6.1172   27.5628 C   0  0  0  0  0  0  0  0  0  0  0  0
    3.0331   -7.4400   27.6362 C   0  0  0  0  0  0  0  0  0  0  0  0
    5.4553   -8.5933   27.9644 C   0  0  0  0  0  0  0  0  0  0  0  0
   -2.3870  -12.8440   19.2512 C   0  0  0  0  0  0  0  0  0  0  0  0
    0.5331   -7.6964   16.2751 C   0  0  0  0  0  0  0  0  0  0  0  0
   -0.6740  -10.8737   18.0482 C   0  0  0  0  0  0  0  0  0  0  0  0
    5.6751  -10.5870   29.7637 O   0  0  0  0  0  0  0  0  0  0  0  0
    1.7612   -5.6483   26.7172 C   0  0  0  0  0  0  0  0  0  0  0  0
    0.2221   -9.8326   17.4055 C   0  0  0  0  0  0  0  0  0  0  0  0
    4.3850   -9.0730   28.6745 C   0  0  0  0  0  0  0  0  0  0  0  0
  1  7  4  0
  1 22  4  0
  2 17  4  0
  2 20  4  0
  2 28  4  0
  3  6  1  0
  3 19  1  0
  4 19  1  0
  4 26  1  0
  5 17  4  0
  5 18  4  0
  6 20  1  0
  6 26  1  0
  7 24  4  0
  8 15  4  0
  8 24  4  0
  9 14  4  0
  9 21  4  0
 10 12  4  0
 10 27  4  0
 11 12  4  0
 11 23  4  0
 13 23  4  0
 13 27  4  0
 14 20  4  0
 15 22  4  0
 16 18  4  0
 16 25  2  0
 16 28  4  0
 21 28  4  0
 24 27  1  0
M  END
$$$$

 Created by Python create_sdf_string function

 28 31  0  0  0  0  0  0  0  0999 V2000
   -1.0054  -13.0622   19.1198 C   0  0  0  0  0  0  0  0  0  0  0  0
    3.1478   -8.5360   28.5161 C   0  0  0  0  0  0  0  0  0  0  0  0
    0.5798   -7.1906   27.9330 C   0  0  0  0  0  0  0  0  0  0  0  0
    0.3978   -5.1561   26.6955 C   0  0  0  0  0  0  0  0  0  0  0  0
    2.3063  -10.0533   30.0125 C   0  0  0  0  0  0  0  0  0  0  0  0
    1.8591   -6.8254   27.4685 N   0  0  0  0  0  0  0  0  0  0  0  0
   -0.2167  -12.1055   18.5568 C   0  0  0  0  0  0  0  0  0  0  0  0
   -2.0661  -10.6994   18.1916 C   0  0  0  0  0  0  0  0  0  0  0  0
    5.2703   -7.5691   27.1123 C   0  0  0  0  0  0  0  0  0  0  0  0
    1.6204   -9.9887   17.2935 C   0  0  0  0  0  0  0  0  0  0  0  0
    1.8931   -7.9265   16.2047 C   0  0  0  0  0  0  0  0  0  0  0  0
    2.4396   -9.0801   16.7132 C   0  0  0  0  0  0  0  0  0  0  0  0
   -0.2575   -8.6234   16.8582 C   0  0  0  0  0  0  0  0  0  0  0  0
    4.0614   -7.0367   27.0106 N   0  0  0  0  0  0  0  0  0  0  0  0
   -2.9133  -11.6279   18.7578 C   0  0  0  0  0  0  0  0  0  0  0  0
    4.5688  -10.1291   29.5758 C   0  0  0  0  0  0  0  0  0  0  0  0
    2.1008   -9.0410   29.1852 N   0  0  0  0  0  0  0  0  0  0  0  0
    3.4829  -10.5697   30.2091 N   0  0  0  0  0  0  0  0  0  0  0  0
   -0.3363   -6.1172   27.5628 C   0  0  0  0  0  0  0  0  0  0  0  0
    3.0331   -7.4400   27.6362 C   0  0  0  0  0  0  0  0  0  0  0  0
    5.4553   -8.5933   27.9644 C   0  0  0  0  0  0  0  0  0  0  0  0
   -2.3870  -12.8440   19.2512 C   0  0  0  0  0  0  0  0  0  0  0  0
    0.5331   -7.6964   16.2751 C   0  0  0  0  0  0  0  0  0  0  0  0
   -0.6740  -10.8737   18.0482 C   0  0  0  0  0  0  0  0  0  0  0  0
    5.6751  -10.5870   29.7637 O   0  0  0  0  0  0  0  0  0  0  0  0
    1.7612   -5.6483   26.7172 C   0  0  0  0  0  0  0  0  0  0  0  0
    0.2221   -9.8326   17.4055 C   0  0  0  0  0  0  0  0  0  0  0  0
    4.3850   -9.0730   28.6745 C   0  0  0  0  0  0  0  0  0  0  0  0
  1  7  4  0
  1 22  4  0
  2 17  4  0
  2 20  4  0
  2 28  4  0
  3  6  1  0
  3 19  1  0
  4 19  1  0
  4 26  1  0
  5 17  4  0
  5 18  4  0
  6 20  1  0
  6 26  1  0
  7 24  4  0
  8 15  4  0
  8 24  4  0
  9 14  4  0
  9 21  4  0
 10 12  4  0
 10 27  4  0
 11 12  4  0
 11 23  4  0
 13 23  4  0
 13 27  4  0
 14 20  4  0
 15 22  4  0
 16 18  4  0
 16 25  2  0
 16 28  4  0
 21 28  4  0
 24 27  1  0
M  END
$$$$

 Created by Python create_sdf_string function

 28 31  0  0  0  0  0  0  0  0999 V2000
   -1.0054  -13.0622   19.1198 C   0  0  0  0  0  0  0  0  0  0  0  0
    3.1478   -8.5360   28.5161 C   0  0  0  0  0  0  0  0  0  0  0  0
    0.5798   -7.1906   27.9330 C   0  0  0  0  0  0  0  0  0  0  0  0
    0.3978   -5.1561   26.6955 C   0  0  0  0  0  0  0  0  0  0  0  0
    2.3063  -10.0533   30.0125 C   0  0  0  0  0  0  0  0  0  0  0  0
    1.8591   -6.8254   27.4685 N   0  0  0  0  0  0  0  0  0  0  0  0
   -0.2167  -12.1055   18.5568 C   0  0  0  0  0  0  0  0  0  0  0  0
   -2.0661  -10.6994   18.1916 C   0  0  0  0  0  0  0  0  0  0  0  0
    5.2703   -7.5691   27.1123 C   0  0  0  0  0  0  0  0  0  0  0  0
    1.6204   -9.9887   17.2935 C   0  0  0  0  0  0  0  0  0  0  0  0
    1.8931   -7.9265   16.2047 C   0  0  0  0  0  0  0  0  0  0  0  0
    2.4396   -9.0801   16.7132 C   0  0  0  0  0  0  0  0  0  0  0  0
   -0.2575   -8.6234   16.8582 C   0  0  0  0  0  0  0  0  0  0  0  0
    4.0614   -7.0367   27.0106 N   0  0  0  0  0  0  0  0  0  0  0  0
   -2.9133  -11.6279   18.7578 C   0  0  0  0  0  0  0  0  0  0  0  0
    4.5688  -10.1291   29.5758 C   0  0  0  0  0  0  0  0  0  0  0  0
    2.1008   -9.0410   29.1852 N   0  0  0  0  0  0  0  0  0  0  0  0
    3.4829  -10.5697   30.2091 N   0  0  0  0  0  0  0  0  0  0  0  0
   -0.3363   -6.1172   27.5628 C   0  0  0  0  0  0  0  0  0  0  0  0
    3.0331   -7.4400   27.6362 C   0  0  0  0  0  0  0  0  0  0  0  0
    5.4553   -8.5933   27.9644 C   0  0  0  0  0  0  0  0  0  0  0  0
   -2.3870  -12.8440   19.2512 C   0  0  0  0  0  0  0  0  0  0  0  0
    0.5331   -7.6964   16.2751 C   0  0  0  0  0  0  0  0  0  0  0  0
   -0.6740  -10.8737   18.0482 C   0  0  0  0  0  0  0  0  0  0  0  0
    5.6751  -10.5870   29.7637 O   0  0  0  0  0  0  0  0  0  0  0  0
    1.7612   -5.6483   26.7172 C   0  0  0  0  0  0  0  0  0  0  0  0
    0.2221   -9.8326   17.4055 C   0  0  0  0  0  0  0  0  0  0  0  0
    4.3850   -9.0730   28.6745 C   0  0  0  0  0  0  0  0  0  0  0  0
  1  7  4  0
  1 22  4  0
  2 17  4  0
  2 20  4  0
  2 28  4  0
  3  6  1  0
  3 19  1  0
  4 19  1  0
  4 26  1  0
  5 17  4  0
  5 18  4  0
  6 20  1  0
  6 26  1  0
  7 24  4  0
  8 15  4  0
  8 24  4  0
  9 14  4  0
  9 21  4  0
 10 12  4  0
 10 27  4  0
 11 12  4  0
 11 23  4  0
 13 23  4  0
 13 27  4  0
 14 20  4  0
 15 22  4  0
 16 18  4  0
 16 25  2  0
 16 28  4  0
 21 28  4  0
 24 27  1  0
M  END
$$$$

 Created by Python create_sdf_string function

 28 31  0  0  0  0  0  0  0  0999 V2000
   -1.0054  -13.0622   19.1198 C   0  0  0  0  0  0  0  0  0  0  0  0
    3.1478   -8.5360   28.5161 C   0  0  0  0  0  0  0  0  0  0  0  0
    0.5798   -7.1906   27.9330 C   0  0  0  0  0  0  0  0  0  0  0  0
    0.3978   -5.1561   26.6955 C   0  0  0  0  0  0  0  0  0  0  0  0
    2.3063  -10.0533   30.0125 C   0  0  0  0  0  0  0  0  0  0  0  0
    1.8591   -6.8254   27.4685 N   0  0  0  0  0  0  0  0  0  0  0  0
   -0.2167  -12.1055   18.5568 C   0  0  0  0  0  0  0  0  0  0  0  0
   -2.0661  -10.6994   18.1916 C   0  0  0  0  0  0  0  0  0  0  0  0
    5.2703   -7.5691   27.1123 C   0  0  0  0  0  0  0  0  0  0  0  0
    1.6204   -9.9887   17.2935 C   0  0  0  0  0  0  0  0  0  0  0  0
    1.8931   -7.9265   16.2047 C   0  0  0  0  0  0  0  0  0  0  0  0
    2.4396   -9.0801   16.7132 C   0  0  0  0  0  0  0  0  0  0  0  0
   -0.2575   -8.6234   16.8582 C   0  0  0  0  0  0  0  0  0  0  0  0
    4.0614   -7.0367   27.0106 N   0  0  0  0  0  0  0  0  0  0  0  0
   -2.9133  -11.6279   18.7578 C   0  0  0  0  0  0  0  0  0  0  0  0
    4.5688  -10.1291   29.5758 C   0  0  0  0  0  0  0  0  0  0  0  0
    2.1008   -9.0410   29.1852 N   0  0  0  0  0  0  0  0  0  0  0  0
    3.4829  -10.5697   30.2091 N   0  0  0  0  0  0  0  0  0  0  0  0
   -0.3363   -6.1172   27.5628 C   0  0  0  0  0  0  0  0  0  0  0  0
    3.0331   -7.4400   27.6362 C   0  0  0  0  0  0  0  0  0  0  0  0
    5.4553   -8.5933   27.9644 C   0  0  0  0  0  0  0  0  0  0  0  0
   -2.3870  -12.8440   19.2512 C   0  0  0  0  0  0  0  0  0  0  0  0
    0.5331   -7.6964   16.2751 C   0  0  0  0  0  0  0  0  0  0  0  0
   -0.6740  -10.8737   18.0482 C   0  0  0  0  0  0  0  0  0  0  0  0
    5.6751  -10.5870   29.7637 O   0  0  0  0  0  0  0  0  0  0  0  0
    1.7612   -5.6483   26.7172 C   0  0  0  0  0  0  0  0  0  0  0  0
    0.2221   -9.8326   17.4055 C   0  0  0  0  0  0  0  0  0  0  0  0
    4.3850   -9.0730   28.6745 C   0  0  0  0  0  0  0  0  0  0  0  0
  1  7  4  0
  1 22  4  0
  2 17  4  0
  2 20  4  0
  2 28  4  0
  3  6  1  0
  3 19  1  0
  4 19  1  0
  4 26  1  0
  5 17  4  0
  5 18  4  0
  6 20  1  0
  6 26  1  0
  7 24  4  0
  8 15  4  0
  8 24  4  0
  9 14  4  0
  9 21  4  0
 10 12  4  0
 10 27  4  0
 11 12  4  0
 11 23  4  0
 13 23  4  0
 13 27  4  0
 14 20  4  0
 15 22  4  0
 16 18  4  0
 16 25  2  0
 16 28  4  0
 21 28  4  0
 24 27  1  0
M  END
$$$$

 Created by Python create_sdf_string function

 28 31  0  0  0  0  0  0  0  0999 V2000
   -1.0054  -13.0622   19.1198 C   0  0  0  0  0  0  0  0  0  0  0  0
    3.1478   -8.5360   28.5161 C   0  0  0  0  0  0  0  0  0  0  0  0
    0.5798   -7.1906   27.9330 C   0  0  0  0  0  0  0  0  0  0  0  0
    0.3978   -5.1561   26.6955 C   0  0  0  0  0  0  0  0  0  0  0  0
    2.3063  -10.0533   30.0125 C   0  0  0  0  0  0  0  0  0  0  0  0
    1.8591   -6.8254   27.4685 N   0  0  0  0  0  0  0  0  0  0  0  0
   -0.2167  -12.1055   18.5568 C   0  0  0  0  0  0  0  0  0  0  0  0
   -2.0661  -10.6994   18.1916 C   0  0  0  0  0  0  0  0  0  0  0  0
    5.2703   -7.5691   27.1123 C   0  0  0  0  0  0  0  0  0  0  0  0
    1.6204   -9.9887   17.2935 C   0  0  0  0  0  0  0  0  0  0  0  0
    1.8931   -7.9265   16.2047 C   0  0  0  0  0  0  0  0  0  0  0  0
    2.4396   -9.0801   16.7132 C   0  0  0  0  0  0  0  0  0  0  0  0
   -0.2575   -8.6234   16.8582 C   0  0  0  0  0  0  0  0  0  0  0  0
    4.0614   -7.0367   27.0106 N   0  0  0  0  0  0  0  0  0  0  0  0
   -2.9133  -11.6279   18.7578 C   0  0  0  0  0  0  0  0  0  0  0  0
    4.5688  -10.1291   29.5758 C   0  0  0  0  0  0  0  0  0  0  0  0
    2.1008   -9.0410   29.1852 N   0  0  0  0  0  0  0  0  0  0  0  0
    3.4829  -10.5697   30.2091 N   0  0  0  0  0  0  0  0  0  0  0  0
   -0.3363   -6.1172   27.5628 C   0  0  0  0  0  0  0  0  0  0  0  0
    3.0331   -7.4400   27.6362 C   0  0  0  0  0  0  0  0  0  0  0  0
    5.4553   -8.5933   27.9644 C   0  0  0  0  0  0  0  0  0  0  0  0
   -2.3870  -12.8440   19.2512 C   0  0  0  0  0  0  0  0  0  0  0  0
    0.5331   -7.6964   16.2751 C   0  0  0  0  0  0  0  0  0  0  0  0
   -0.6740  -10.8737   18.0482 C   0  0  0  0  0  0  0  0  0  0  0  0
    5.6751  -10.5870   29.7637 O   0  0  0  0  0  0  0  0  0  0  0  0
    1.7612   -5.6483   26.7172 C   0  0  0  0  0  0  0  0  0  0  0  0
    0.2221   -9.8326   17.4055 C   0  0  0  0  0  0  0  0  0  0  0  0
    4.3850   -9.0730   28.6745 C   0  0  0  0  0  0  0  0  0  0  0  0
  1  7  4  0
  1 22  4  0
  2 17  4  0
  2 20  4  0
  2 28  4  0
  3  6  1  0
  3 19  1  0
  4 19  1  0
  4 26  1  0
  5 17  4  0
  5 18  4  0
  6 20  1  0
  6 26  1  0
  7 24  4  0
  8 15  4  0
  8 24  4  0
  9 14  4  0
  9 21  4  0
 10 12  4  0
 10 27  4  0
 11 12  4  0
 11 23  4  0
 13 23  4  0
 13 27  4  0
 14 20  4  0
 15 22  4  0
 16 18  4  0
 16 25  2  0
 16 28  4  0
 21 28  4  0
 24 27  1  0
M  END
$$$$

 Created by Python create_sdf_string function

 28 31  0  0  0  0  0  0  0  0999 V2000
   -1.0054  -13.0622   19.1198 C   0  0  0  0  0  0  0  0  0  0  0  0
    3.1478   -8.5360   28.5161 C   0  0  0  0  0  0  0  0  0  0  0  0
    0.5798   -7.1906   27.9330 C   0  0  0  0  0  0  0  0  0  0  0  0
    0.3978   -5.1561   26.6955 C   0  0  0  0  0  0  0  0  0  0  0  0
    2.3063  -10.0533   30.0125 C   0  0  0  0  0  0  0  0  0  0  0  0
    1.8591   -6.8254   27.4685 N   0  0  0  0  0  0  0  0  0  0  0  0
   -0.2167  -12.1055   18.5568 C   0  0  0  0  0  0  0  0  0  0  0  0
   -2.0661  -10.6994   18.1916 C   0  0  0  0  0  0  0  0  0  0  0  0
    5.2703   -7.5691   27.1123 C   0  0  0  0  0  0  0  0  0  0  0  0
    1.6204   -9.9887   17.2935 C   0  0  0  0  0  0  0  0  0  0  0  0
    1.8931   -7.9265   16.2047 C   0  0  0  0  0  0  0  0  0  0  0  0
    2.4396   -9.0801   16.7132 C   0  0  0  0  0  0  0  0  0  0  0  0
   -0.2575   -8.6234   16.8582 C   0  0  0  0  0  0  0  0  0  0  0  0
    4.0614   -7.0367   27.0106 N   0  0  0  0  0  0  0  0  0  0  0  0
   -2.9133  -11.6279   18.7578 C   0  0  0  0  0  0  0  0  0  0  0  0
    4.5688  -10.1291   29.5758 C   0  0  0  0  0  0  0  0  0  0  0  0
    2.1008   -9.0410   29.1852 N   0  0  0  0  0  0  0  0  0  0  0  0
    3.4829  -10.5697   30.2091 N   0  0  0  0  0  0  0  0  0  0  0  0
   -0.3363   -6.1172   27.5628 C   0  0  0  0  0  0  0  0  0  0  0  0
    3.0331   -7.4400   27.6362 C   0  0  0  0  0  0  0  0  0  0  0  0
    5.4553   -8.5933   27.9644 C   0  0  0  0  0  0  0  0  0  0  0  0
   -2.3870  -12.8440   19.2512 C   0  0  0  0  0  0  0  0  0  0  0  0
    0.5331   -7.6964   16.2751 C   0  0  0  0  0  0  0  0  0  0  0  0
   -0.6740  -10.8737   18.0482 C   0  0  0  0  0  0  0  0  0  0  0  0
    5.6751  -10.5870   29.7637 O   0  0  0  0  0  0  0  0  0  0  0  0
    1.7612   -5.6483   26.7172 C   0  0  0  0  0  0  0  0  0  0  0  0
    0.2221   -9.8326   17.4055 C   0  0  0  0  0  0  0  0  0  0  0  0
    4.3850   -9.0730   28.6745 C   0  0  0  0  0  0  0  0  0  0  0  0
  1  7  4  0
  1 22  4  0
  2 17  4  0
  2 20  4  0
  2 28  4  0
  3  6  1  0
  3 19  1  0
  4 19  1  0
  4 26  1  0
  5 17  4  0
  5 18  4  0
  6 20  1  0
  6 26  1  0
  7 24  4  0
  8 15  4  0
  8 24  4  0
  9 14  4  0
  9 21  4  0
 10 12  4  0
 10 27  4  0
 11 12  4  0
 11 23  4  0
 13 23  4  0
 13 27  4  0
 14 20  4  0
 15 22  4  0
 16 18  4  0
 16 25  2  0
 16 28  4  0
 21 28  4  0
 24 27  1  0
M  END
$$$$

 Created by Python create_sdf_string function

 28 31  0  0  0  0  0  0  0  0999 V2000
   -1.0054  -13.0622   19.1198 C   0  0  0  0  0  0  0  0  0  0  0  0
    3.1478   -8.5360   28.5161 C   0  0  0  0  0  0  0  0  0  0  0  0
    0.5798   -7.1906   27.9330 C   0  0  0  0  0  0  0  0  0  0  0  0
    0.3978   -5.1561   26.6955 C   0  0  0  0  0  0  0  0  0  0  0  0
    2.3063  -10.0533   30.0125 C   0  0  0  0  0  0  0  0  0  0  0  0
    1.8591   -6.8254   27.4685 N   0  0  0  0  0  0  0  0  0  0  0  0
   -0.2167  -12.1055   18.5568 C   0  0  0  0  0  0  0  0  0  0  0  0
   -2.0661  -10.6994   18.1916 C   0  0  0  0  0  0  0  0  0  0  0  0
    5.2703   -7.5691   27.1123 C   0  0  0  0  0  0  0  0  0  0  0  0
    1.6204   -9.9887   17.2935 C   0  0  0  0  0  0  0  0  0  0  0  0
    1.8931   -7.9265   16.2047 C   0  0  0  0  0  0  0  0  0  0  0  0
    2.4396   -9.0801   16.7132 C   0  0  0  0  0  0  0  0  0  0  0  0
   -0.2575   -8.6234   16.8582 C   0  0  0  0  0  0  0  0  0  0  0  0
    4.0614   -7.0367   27.0106 N   0  0  0  0  0  0  0  0  0  0  0  0
   -2.9133  -11.6279   18.7578 C   0  0  0  0  0  0  0  0  0  0  0  0
    4.5688  -10.1291   29.5758 C   0  0  0  0  0  0  0  0  0  0  0  0
    2.1008   -9.0410   29.1852 N   0  0  0  0  0  0  0  0  0  0  0  0
    3.4829  -10.5697   30.2091 N   0  0  0  0  0  0  0  0  0  0  0  0
   -0.3363   -6.1172   27.5628 C   0  0  0  0  0  0  0  0  0  0  0  0
    3.0331   -7.4400   27.6362 C   0  0  0  0  0  0  0  0  0  0  0  0
    5.4553   -8.5933   27.9644 C   0  0  0  0  0  0  0  0  0  0  0  0
   -2.3870  -12.8440   19.2512 C   0  0  0  0  0  0  0  0  0  0  0  0
    0.5331   -7.6964   16.2751 C   0  0  0  0  0  0  0  0  0  0  0  0
   -0.6740  -10.8737   18.0482 C   0  0  0  0  0  0  0  0  0  0  0  0
    5.6751  -10.5870   29.7637 O   0  0  0  0  0  0  0  0  0  0  0  0
    1.7612   -5.6483   26.7172 C   0  0  0  0  0  0  0  0  0  0  0  0
    0.2221   -9.8326   17.4055 C   0  0  0  0  0  0  0  0  0  0  0  0
    4.3850   -9.0730   28.6745 C   0  0  0  0  0  0  0  0  0  0  0  0
  1  7  4  0
  1 22  4  0
  2 17  4  0
  2 20  4  0
  2 28  4  0
  3  6  1  0
  3 19  1  0
  4 19  1  0
  4 26  1  0
  5 17  4  0
  5 18  4  0
  6 20  1  0
  6 26  1  0
  7 24  4  0
  8 15  4  0
  8 24  4  0
  9 14  4  0
  9 21  4  0
 10 12  4  0
 10 27  4  0
 11 12  4  0
 11 23  4  0
 13 23  4  0
 13 27  4  0
 14 20  4  0
 15 22  4  0
 16 18  4  0
 16 25  2  0
 16 28  4  0
 21 28  4  0
 24 27  1  0
M  END
$$$$

 Created by Python create_sdf_string function

 28 31  0  0  0  0  0  0  0  0999 V2000
   -1.0054  -13.0622   19.1198 C   0  0  0  0  0  0  0  0  0  0  0  0
    3.1478   -8.5360   28.5161 C   0  0  0  0  0  0  0  0  0  0  0  0
    0.5798   -7.1906   27.9330 C   0  0  0  0  0  0  0  0  0  0  0  0
    0.3978   -5.1561   26.6955 C   0  0  0  0  0  0  0  0  0  0  0  0
    2.3063  -10.0533   30.0125 C   0  0  0  0  0  0  0  0  0  0  0  0
    1.8591   -6.8254   27.4685 N   0  0  0  0  0  0  0  0  0  0  0  0
   -0.2167  -12.1055   18.5568 C   0  0  0  0  0  0  0  0  0  0  0  0
   -2.0661  -10.6994   18.1916 C   0  0  0  0  0  0  0  0  0  0  0  0
    5.2703   -7.5691   27.1123 C   0  0  0  0  0  0  0  0  0  0  0  0
    1.6204   -9.9887   17.2935 C   0  0  0  0  0  0  0  0  0  0  0  0
    1.8931   -7.9265   16.2047 C   0  0  0  0  0  0  0  0  0  0  0  0
    2.4396   -9.0801   16.7132 C   0  0  0  0  0  0  0  0  0  0  0  0
   -0.2575   -8.6234   16.8582 C   0  0  0  0  0  0  0  0  0  0  0  0
    4.0614   -7.0367   27.0106 N   0  0  0  0  0  0  0  0  0  0  0  0
   -2.9133  -11.6279   18.7578 C   0  0  0  0  0  0  0  0  0  0  0  0
    4.5688  -10.1291   29.5758 C   0  0  0  0  0  0  0  0  0  0  0  0
    2.1008   -9.0410   29.1852 N   0  0  0  0  0  0  0  0  0  0  0  0
    3.4829  -10.5697   30.2091 N   0  0  0  0  0  0  0  0  0  0  0  0
   -0.3363   -6.1172   27.5628 C   0  0  0  0  0  0  0  0  0  0  0  0
    3.0331   -7.4400   27.6362 C   0  0  0  0  0  0  0  0  0  0  0  0
    5.4553   -8.5933   27.9644 C   0  0  0  0  0  0  0  0  0  0  0  0
   -2.3870  -12.8440   19.2512 C   0  0  0  0  0  0  0  0  0  0  0  0
    0.5331   -7.6964   16.2751 C   0  0  0  0  0  0  0  0  0  0  0  0
   -0.6740  -10.8737   18.0482 C   0  0  0  0  0  0  0  0  0  0  0  0
    5.6751  -10.5870   29.7637 O   0  0  0  0  0  0  0  0  0  0  0  0
    1.7612   -5.6483   26.7172 C   0  0  0  0  0  0  0  0  0  0  0  0
    0.2221   -9.8326   17.4055 C   0  0  0  0  0  0  0  0  0  0  0  0
    4.3850   -9.0730   28.6745 C   0  0  0  0  0  0  0  0  0  0  0  0
  1  7  4  0
  1 22  4  0
  2 17  4  0
  2 20  4  0
  2 28  4  0
  3  6  1  0
  3 19  1  0
  4 19  1  0
  4 26  1  0
  5 17  4  0
  5 18  4  0
  6 20  1  0
  6 26  1  0
  7 24  4  0
  8 15  4  0
  8 24  4  0
  9 14  4  0
  9 21  4  0
 10 12  4  0
 10 27  4  0
 11 12  4  0
 11 23  4  0
 13 23  4  0
 13 27  4  0
 14 20  4  0
 15 22  4  0
 16 18  4  0
 16 25  2  0
 16 28  4  0
 21 28  4  0
 24 27  1  0
M  END
$$$$

 Created by Python create_sdf_string function

 28 31  0  0  0  0  0  0  0  0999 V2000
   -1.0054  -13.0622   19.1198 C   0  0  0  0  0  0  0  0  0  0  0  0
    3.1478   -8.5360   28.5161 C   0  0  0  0  0  0  0  0  0  0  0  0
    0.5798   -7.1906   27.9330 C   0  0  0  0  0  0  0  0  0  0  0  0
    0.3978   -5.1561   26.6955 C   0  0  0  0  0  0  0  0  0  0  0  0
    2.3063  -10.0533   30.0125 C   0  0  0  0  0  0  0  0  0  0  0  0
    1.8591   -6.8254   27.4685 N   0  0  0  0  0  0  0  0  0  0  0  0
   -0.2167  -12.1055   18.5568 C   0  0  0  0  0  0  0  0  0  0  0  0
   -2.0661  -10.6994   18.1916 C   0  0  0  0  0  0  0  0  0  0  0  0
    5.2703   -7.5691   27.1123 C   0  0  0  0  0  0  0  0  0  0  0  0
    1.6204   -9.9887   17.2935 C   0  0  0  0  0  0  0  0  0  0  0  0
    1.8931   -7.9265   16.2047 C   0  0  0  0  0  0  0  0  0  0  0  0
    2.4396   -9.0801   16.7132 C   0  0  0  0  0  0  0  0  0  0  0  0
   -0.2575   -8.6234   16.8582 C   0  0  0  0  0  0  0  0  0  0  0  0
    4.0614   -7.0367   27.0106 N   0  0  0  0  0  0  0  0  0  0  0  0
   -2.9133  -11.6279   18.7578 C   0  0  0  0  0  0  0  0  0  0  0  0
    4.5688  -10.1291   29.5758 C   0  0  0  0  0  0  0  0  0  0  0  0
    2.1008   -9.0410   29.1852 N   0  0  0  0  0  0  0  0  0  0  0  0
    3.4829  -10.5697   30.2091 N   0  0  0  0  0  0  0  0  0  0  0  0
   -0.3363   -6.1172   27.5628 C   0  0  0  0  0  0  0  0  0  0  0  0
    3.0331   -7.4400   27.6362 C   0  0  0  0  0  0  0  0  0  0  0  0
    5.4553   -8.5933   27.9644 C   0  0  0  0  0  0  0  0  0  0  0  0
   -2.3870  -12.8440   19.2512 C   0  0  0  0  0  0  0  0  0  0  0  0
    0.5331   -7.6964   16.2751 C   0  0  0  0  0  0  0  0  0  0  0  0
   -0.6740  -10.8737   18.0482 C   0  0  0  0  0  0  0  0  0  0  0  0
    5.6751  -10.5870   29.7637 O   0  0  0  0  0  0  0  0  0  0  0  0
    1.7612   -5.6483   26.7172 C   0  0  0  0  0  0  0  0  0  0  0  0
    0.2221   -9.8326   17.4055 C   0  0  0  0  0  0  0  0  0  0  0  0
    4.3850   -9.0730   28.6745 C   0  0  0  0  0  0  0  0  0  0  0  0
  1  7  4  0
  1 22  4  0
  2 17  4  0
  2 20  4  0
  2 28  4  0
  3  6  1  0
  3 19  1  0
  4 19  1  0
  4 26  1  0
  5 17  4  0
  5 18  4  0
  6 20  1  0
  6 26  1  0
  7 24  4  0
  8 15  4  0
  8 24  4  0
  9 14  4  0
  9 21  4  0
 10 12  4  0
 10 27  4  0
 11 12  4  0
 11 23  4  0
 13 23  4  0
 13 27  4  0
 14 20  4  0
 15 22  4  0
 16 18  4  0
 16 25  2  0
 16 28  4  0
 21 28  4  0
 24 27  1  0
M  END
$$$$

 Created by Python create_sdf_string function

 28 31  0  0  0  0  0  0  0  0999 V2000
   -1.0054  -13.0622   19.1198 C   0  0  0  0  0  0  0  0  0  0  0  0
    3.1478   -8.5360   28.5161 C   0  0  0  0  0  0  0  0  0  0  0  0
    0.5798   -7.1906   27.9330 C   0  0  0  0  0  0  0  0  0  0  0  0
    0.3978   -5.1561   26.6955 C   0  0  0  0  0  0  0  0  0  0  0  0
    2.3063  -10.0533   30.0125 C   0  0  0  0  0  0  0  0  0  0  0  0
    1.8591   -6.8254   27.4685 N   0  0  0  0  0  0  0  0  0  0  0  0
   -0.2167  -12.1055   18.5568 C   0  0  0  0  0  0  0  0  0  0  0  0
   -2.0661  -10.6994   18.1916 C   0  0  0  0  0  0  0  0  0  0  0  0
    5.2703   -7.5691   27.1123 C   0  0  0  0  0  0  0  0  0  0  0  0
    1.6204   -9.9887   17.2935 C   0  0  0  0  0  0  0  0  0  0  0  0
    1.8931   -7.9265   16.2047 C   0  0  0  0  0  0  0  0  0  0  0  0
    2.4396   -9.0801   16.7132 C   0  0  0  0  0  0  0  0  0  0  0  0
   -0.2575   -8.6234   16.8582 C   0  0  0  0  0  0  0  0  0  0  0  0
    4.0614   -7.0367   27.0106 N   0  0  0  0  0  0  0  0  0  0  0  0
   -2.9133  -11.6279   18.7578 C   0  0  0  0  0  0  0  0  0  0  0  0
    4.5688  -10.1291   29.5758 C   0  0  0  0  0  0  0  0  0  0  0  0
    2.1008   -9.0410   29.1852 N   0  0  0  0  0  0  0  0  0  0  0  0
    3.4829  -10.5697   30.2091 N   0  0  0  0  0  0  0  0  0  0  0  0
   -0.3363   -6.1172   27.5628 C   0  0  0  0  0  0  0  0  0  0  0  0
    3.0331   -7.4400   27.6362 C   0  0  0  0  0  0  0  0  0  0  0  0
    5.4553   -8.5933   27.9644 C   0  0  0  0  0  0  0  0  0  0  0  0
   -2.3870  -12.8440   19.2512 C   0  0  0  0  0  0  0  0  0  0  0  0
    0.5331   -7.6964   16.2751 C   0  0  0  0  0  0  0  0  0  0  0  0
   -0.6740  -10.8737   18.0482 C   0  0  0  0  0  0  0  0  0  0  0  0
    5.6751  -10.5870   29.7637 O   0  0  0  0  0  0  0  0  0  0  0  0
    1.7612   -5.6483   26.7172 C   0  0  0  0  0  0  0  0  0  0  0  0
    0.2221   -9.8326   17.4055 C   0  0  0  0  0  0  0  0  0  0  0  0
    4.3850   -9.0730   28.6745 C   0  0  0  0  0  0  0  0  0  0  0  0
  1  7  4  0
  1 22  4  0
  2 17  4  0
  2 20  4  0
  2 28  4  0
  3  6  1  0
  3 19  1  0
  4 19  1  0
  4 26  1  0
  5 17  4  0
  5 18  4  0
  6 20  1  0
  6 26  1  0
  7 24  4  0
  8 15  4  0
  8 24  4  0
  9 14  4  0
  9 21  4  0
 10 12  4  0
 10 27  4  0
 11 12  4  0
 11 23  4  0
 13 23  4  0
 13 27  4  0
 14 20  4  0
 15 22  4  0
 16 18  4  0
 16 25  2  0
 16 28  4  0
 21 28  4  0
 24 27  1  0
M  END
$$$$

 Created by Python create_sdf_string function

 28 31  0  0  0  0  0  0  0  0999 V2000
   -1.0054  -13.0622   19.1198 C   0  0  0  0  0  0  0  0  0  0  0  0
    3.1478   -8.5360   28.5161 C   0  0  0  0  0  0  0  0  0  0  0  0
    0.5798   -7.1906   27.9330 C   0  0  0  0  0  0  0  0  0  0  0  0
    0.3978   -5.1561   26.6955 C   0  0  0  0  0  0  0  0  0  0  0  0
    2.3063  -10.0533   30.0125 C   0  0  0  0  0  0  0  0  0  0  0  0
    1.8591   -6.8254   27.4685 N   0  0  0  0  0  0  0  0  0  0  0  0
   -0.2167  -12.1055   18.5568 C   0  0  0  0  0  0  0  0  0  0  0  0
   -2.0661  -10.6994   18.1916 C   0  0  0  0  0  0  0  0  0  0  0  0
    5.2703   -7.5691   27.1123 C   0  0  0  0  0  0  0  0  0  0  0  0
    1.6204   -9.9887   17.2935 C   0  0  0  0  0  0  0  0  0  0  0  0
    1.8931   -7.9265   16.2047 C   0  0  0  0  0  0  0  0  0  0  0  0
    2.4396   -9.0801   16.7132 C   0  0  0  0  0  0  0  0  0  0  0  0
   -0.2575   -8.6234   16.8582 C   0  0  0  0  0  0  0  0  0  0  0  0
    4.0614   -7.0367   27.0106 N   0  0  0  0  0  0  0  0  0  0  0  0
   -2.9133  -11.6279   18.7578 C   0  0  0  0  0  0  0  0  0  0  0  0
    4.5688  -10.1291   29.5758 C   0  0  0  0  0  0  0  0  0  0  0  0
    2.1008   -9.0410   29.1852 N   0  0  0  0  0  0  0  0  0  0  0  0
    3.4829  -10.5697   30.2091 N   0  0  0  0  0  0  0  0  0  0  0  0
   -0.3363   -6.1172   27.5628 C   0  0  0  0  0  0  0  0  0  0  0  0
    3.0331   -7.4400   27.6362 C   0  0  0  0  0  0  0  0  0  0  0  0
    5.4553   -8.5933   27.9644 C   0  0  0  0  0  0  0  0  0  0  0  0
   -2.3870  -12.8440   19.2512 C   0  0  0  0  0  0  0  0  0  0  0  0
    0.5331   -7.6964   16.2751 C   0  0  0  0  0  0  0  0  0  0  0  0
   -0.6740  -10.8737   18.0482 C   0  0  0  0  0  0  0  0  0  0  0  0
    5.6751  -10.5870   29.7637 O   0  0  0  0  0  0  0  0  0  0  0  0
    1.7612   -5.6483   26.7172 C   0  0  0  0  0  0  0  0  0  0  0  0
    0.2221   -9.8326   17.4055 C   0  0  0  0  0  0  0  0  0  0  0  0
    4.3850   -9.0730   28.6745 C   0  0  0  0  0  0  0  0  0  0  0  0
  1  7  4  0
  1 22  4  0
  2 17  4  0
  2 20  4  0
  2 28  4  0
  3  6  1  0
  3 19  1  0
  4 19  1  0
  4 26  1  0
  5 17  4  0
  5 18  4  0
  6 20  1  0
  6 26  1  0
  7 24  4  0
  8 15  4  0
  8 24  4  0
  9 14  4  0
  9 21  4  0
 10 12  4  0
 10 27  4  0
 11 12  4  0
 11 23  4  0
 13 23  4  0
 13 27  4  0
 14 20  4  0
 15 22  4  0
 16 18  4  0
 16 25  2  0
 16 28  4  0
 21 28  4  0
 24 27  1  0
M  END
$$$$

 Created by Python create_sdf_string function

 28 31  0  0  0  0  0  0  0  0999 V2000
   -1.0054  -13.0622   19.1198 C   0  0  0  0  0  0  0  0  0  0  0  0
    3.1478   -8.5360   28.5161 C   0  0  0  0  0  0  0  0  0  0  0  0
    0.5798   -7.1906   27.9330 C   0  0  0  0  0  0  0  0  0  0  0  0
    0.3978   -5.1561   26.6955 C   0  0  0  0  0  0  0  0  0  0  0  0
    2.3063  -10.0533   30.0125 C   0  0  0  0  0  0  0  0  0  0  0  0
    1.8591   -6.8254   27.4685 N   0  0  0  0  0  0  0  0  0  0  0  0
   -0.2167  -12.1055   18.5568 C   0  0  0  0  0  0  0  0  0  0  0  0
   -2.0661  -10.6994   18.1916 C   0  0  0  0  0  0  0  0  0  0  0  0
    5.2703   -7.5691   27.1123 C   0  0  0  0  0  0  0  0  0  0  0  0
    1.6204   -9.9887   17.2935 C   0  0  0  0  0  0  0  0  0  0  0  0
    1.8931   -7.9265   16.2047 C   0  0  0  0  0  0  0  0  0  0  0  0
    2.4396   -9.0801   16.7132 C   0  0  0  0  0  0  0  0  0  0  0  0
   -0.2575   -8.6234   16.8582 C   0  0  0  0  0  0  0  0  0  0  0  0
    4.0614   -7.0367   27.0106 N   0  0  0  0  0  0  0  0  0  0  0  0
   -2.9133  -11.6279   18.7578 C   0  0  0  0  0  0  0  0  0  0  0  0
    4.5688  -10.1291   29.5758 C   0  0  0  0  0  0  0  0  0  0  0  0
    2.1008   -9.0410   29.1852 N   0  0  0  0  0  0  0  0  0  0  0  0
    3.4829  -10.5697   30.2091 N   0  0  0  0  0  0  0  0  0  0  0  0
   -0.3363   -6.1172   27.5628 C   0  0  0  0  0  0  0  0  0  0  0  0
    3.0331   -7.4400   27.6362 C   0  0  0  0  0  0  0  0  0  0  0  0
    5.4553   -8.5933   27.9644 C   0  0  0  0  0  0  0  0  0  0  0  0
   -2.3870  -12.8440   19.2512 C   0  0  0  0  0  0  0  0  0  0  0  0
    0.5331   -7.6964   16.2751 C   0  0  0  0  0  0  0  0  0  0  0  0
   -0.6740  -10.8737   18.0482 C   0  0  0  0  0  0  0  0  0  0  0  0
    5.6751  -10.5870   29.7637 O   0  0  0  0  0  0  0  0  0  0  0  0
    1.7612   -5.6483   26.7172 C   0  0  0  0  0  0  0  0  0  0  0  0
    0.2221   -9.8326   17.4055 C   0  0  0  0  0  0  0  0  0  0  0  0
    4.3850   -9.0730   28.6745 C   0  0  0  0  0  0  0  0  0  0  0  0
  1  7  4  0
  1 22  4  0
  2 17  4  0
  2 20  4  0
  2 28  4  0
  3  6  1  0
  3 19  1  0
  4 19  1  0
  4 26  1  0
  5 17  4  0
  5 18  4  0
  6 20  1  0
  6 26  1  0
  7 24  4  0
  8 15  4  0
  8 24  4  0
  9 14  4  0
  9 21  4  0
 10 12  4  0
 10 27  4  0
 11 12  4  0
 11 23  4  0
 13 23  4  0
 13 27  4  0
 14 20  4  0
 15 22  4  0
 16 18  4  0
 16 25  2  0
 16 28  4  0
 21 28  4  0
 24 27  1  0
M  END
$$$$

 Created by Python create_sdf_string function

 28 31  0  0  0  0  0  0  0  0999 V2000
   -1.0054  -13.0622   19.1198 C   0  0  0  0  0  0  0  0  0  0  0  0
    3.1478   -8.5360   28.5161 C   0  0  0  0  0  0  0  0  0  0  0  0
    0.5798   -7.1906   27.9330 C   0  0  0  0  0  0  0  0  0  0  0  0
    0.3978   -5.1561   26.6955 C   0  0  0  0  0  0  0  0  0  0  0  0
    2.3063  -10.0533   30.0125 C   0  0  0  0  0  0  0  0  0  0  0  0
    1.8591   -6.8254   27.4685 N   0  0  0  0  0  0  0  0  0  0  0  0
   -0.2167  -12.1055   18.5568 C   0  0  0  0  0  0  0  0  0  0  0  0
   -2.0661  -10.6994   18.1916 C   0  0  0  0  0  0  0  0  0  0  0  0
    5.2703   -7.5691   27.1123 C   0  0  0  0  0  0  0  0  0  0  0  0
    1.6204   -9.9887   17.2935 C   0  0  0  0  0  0  0  0  0  0  0  0
    1.8931   -7.9265   16.2047 C   0  0  0  0  0  0  0  0  0  0  0  0
    2.4396   -9.0801   16.7132 C   0  0  0  0  0  0  0  0  0  0  0  0
   -0.2575   -8.6234   16.8582 C   0  0  0  0  0  0  0  0  0  0  0  0
    4.0614   -7.0367   27.0106 N   0  0  0  0  0  0  0  0  0  0  0  0
   -2.9133  -11.6279   18.7578 C   0  0  0  0  0  0  0  0  0  0  0  0
    4.5688  -10.1291   29.5758 C   0  0  0  0  0  0  0  0  0  0  0  0
    2.1008   -9.0410   29.1852 N   0  0  0  0  0  0  0  0  0  0  0  0
    3.4829  -10.5697   30.2091 N   0  0  0  0  0  0  0  0  0  0  0  0
   -0.3363   -6.1172   27.5628 C   0  0  0  0  0  0  0  0  0  0  0  0
    3.0331   -7.4400   27.6362 C   0  0  0  0  0  0  0  0  0  0  0  0
    5.4553   -8.5933   27.9644 C   0  0  0  0  0  0  0  0  0  0  0  0
   -2.3870  -12.8440   19.2512 C   0  0  0  0  0  0  0  0  0  0  0  0
    0.5331   -7.6964   16.2751 C   0  0  0  0  0  0  0  0  0  0  0  0
   -0.6740  -10.8737   18.0482 C   0  0  0  0  0  0  0  0  0  0  0  0
    5.6751  -10.5870   29.7637 O   0  0  0  0  0  0  0  0  0  0  0  0
    1.7612   -5.6483   26.7172 C   0  0  0  0  0  0  0  0  0  0  0  0
    0.2221   -9.8326   17.4055 C   0  0  0  0  0  0  0  0  0  0  0  0
    4.3850   -9.0730   28.6745 C   0  0  0  0  0  0  0  0  0  0  0  0
  1  7  4  0
  1 22  4  0
  2 17  4  0
  2 20  4  0
  2 28  4  0
  3  6  1  0
  3 19  1  0
  4 19  1  0
  4 26  1  0
  5 17  4  0
  5 18  4  0
  6 20  1  0
  6 26  1  0
  7 24  4  0
  8 15  4  0
  8 24  4  0
  9 14  4  0
  9 21  4  0
 10 12  4  0
 10 27  4  0
 11 12  4  0
 11 23  4  0
 13 23  4  0
 13 27  4  0
 14 20  4  0
 15 22  4  0
 16 18  4  0
 16 25  2  0
 16 28  4  0
 21 28  4  0
 24 27  1  0
M  END
$$$$

 Created by Python create_sdf_string function

 28 31  0  0  0  0  0  0  0  0999 V2000
   -1.0054  -13.0622   19.1198 C   0  0  0  0  0  0  0  0  0  0  0  0
    3.1478   -8.5360   28.5161 C   0  0  0  0  0  0  0  0  0  0  0  0
    0.5798   -7.1906   27.9330 C   0  0  0  0  0  0  0  0  0  0  0  0
    0.3978   -5.1561   26.6955 C   0  0  0  0  0  0  0  0  0  0  0  0
    2.3063  -10.0533   30.0125 C   0  0  0  0  0  0  0  0  0  0  0  0
    1.8591   -6.8254   27.4685 N   0  0  0  0  0  0  0  0  0  0  0  0
   -0.2167  -12.1055   18.5568 C   0  0  0  0  0  0  0  0  0  0  0  0
   -2.0661  -10.6994   18.1916 C   0  0  0  0  0  0  0  0  0  0  0  0
    5.2703   -7.5691   27.1123 C   0  0  0  0  0  0  0  0  0  0  0  0
    1.6204   -9.9887   17.2935 C   0  0  0  0  0  0  0  0  0  0  0  0
    1.8931   -7.9265   16.2047 C   0  0  0  0  0  0  0  0  0  0  0  0
    2.4396   -9.0801   16.7132 C   0  0  0  0  0  0  0  0  0  0  0  0
   -0.2575   -8.6234   16.8582 C   0  0  0  0  0  0  0  0  0  0  0  0
    4.0614   -7.0367   27.0106 N   0  0  0  0  0  0  0  0  0  0  0  0
   -2.9133  -11.6279   18.7578 C   0  0  0  0  0  0  0  0  0  0  0  0
    4.5688  -10.1291   29.5758 C   0  0  0  0  0  0  0  0  0  0  0  0
    2.1008   -9.0410   29.1852 N   0  0  0  0  0  0  0  0  0  0  0  0
    3.4829  -10.5697   30.2091 N   0  0  0  0  0  0  0  0  0  0  0  0
   -0.3363   -6.1172   27.5628 C   0  0  0  0  0  0  0  0  0  0  0  0
    3.0331   -7.4400   27.6362 C   0  0  0  0  0  0  0  0  0  0  0  0
    5.4553   -8.5933   27.9644 C   0  0  0  0  0  0  0  0  0  0  0  0
   -2.3870  -12.8440   19.2512 C   0  0  0  0  0  0  0  0  0  0  0  0
    0.5331   -7.6964   16.2751 C   0  0  0  0  0  0  0  0  0  0  0  0
   -0.6740  -10.8737   18.0482 C   0  0  0  0  0  0  0  0  0  0  0  0
    5.6751  -10.5870   29.7637 O   0  0  0  0  0  0  0  0  0  0  0  0
    1.7612   -5.6483   26.7172 C   0  0  0  0  0  0  0  0  0  0  0  0
    0.2221   -9.8326   17.4055 C   0  0  0  0  0  0  0  0  0  0  0  0
    4.3850   -9.0730   28.6745 C   0  0  0  0  0  0  0  0  0  0  0  0
  1  7  4  0
  1 22  4  0
  2 17  4  0
  2 20  4  0
  2 28  4  0
  3  6  1  0
  3 19  1  0
  4 19  1  0
  4 26  1  0
  5 17  4  0
  5 18  4  0
  6 20  1  0
  6 26  1  0
  7 24  4  0
  8 15  4  0
  8 24  4  0
  9 14  4  0
  9 21  4  0
 10 12  4  0
 10 27  4  0
 11 12  4  0
 11 23  4  0
 13 23  4  0
 13 27  4  0
 14 20  4  0
 15 22  4  0
 16 18  4  0
 16 25  2  0
 16 28  4  0
 21 28  4  0
 24 27  1  0
M  END
$$$$

 Created by Python create_sdf_string function

 28 31  0  0  0  0  0  0  0  0999 V2000
   -1.0054  -13.0622   19.1198 C   0  0  0  0  0  0  0  0  0  0  0  0
    3.1478   -8.5360   28.5161 C   0  0  0  0  0  0  0  0  0  0  0  0
    0.5798   -7.1906   27.9330 C   0  0  0  0  0  0  0  0  0  0  0  0
    0.3978   -5.1561   26.6955 C   0  0  0  0  0  0  0  0  0  0  0  0
    2.3063  -10.0533   30.0125 C   0  0  0  0  0  0  0  0  0  0  0  0
    1.8591   -6.8254   27.4685 N   0  0  0  0  0  0  0  0  0  0  0  0
   -0.2167  -12.1055   18.5568 C   0  0  0  0  0  0  0  0  0  0  0  0
   -2.0661  -10.6994   18.1916 C   0  0  0  0  0  0  0  0  0  0  0  0
    5.2703   -7.5691   27.1123 C   0  0  0  0  0  0  0  0  0  0  0  0
    1.6204   -9.9887   17.2935 C   0  0  0  0  0  0  0  0  0  0  0  0
    1.8931   -7.9265   16.2047 C   0  0  0  0  0  0  0  0  0  0  0  0
    2.4396   -9.0801   16.7132 C   0  0  0  0  0  0  0  0  0  0  0  0
   -0.2575   -8.6234   16.8582 C   0  0  0  0  0  0  0  0  0  0  0  0
    4.0614   -7.0367   27.0106 N   0  0  0  0  0  0  0  0  0  0  0  0
   -2.9133  -11.6279   18.7578 C   0  0  0  0  0  0  0  0  0  0  0  0
    4.5688  -10.1291   29.5758 C   0  0  0  0  0  0  0  0  0  0  0  0
    2.1008   -9.0410   29.1852 N   0  0  0  0  0  0  0  0  0  0  0  0
    3.4829  -10.5697   30.2091 N   0  0  0  0  0  0  0  0  0  0  0  0
   -0.3363   -6.1172   27.5628 C   0  0  0  0  0  0  0  0  0  0  0  0
    3.0331   -7.4400   27.6362 C   0  0  0  0  0  0  0  0  0  0  0  0
    5.4553   -8.5933   27.9644 C   0  0  0  0  0  0  0  0  0  0  0  0
   -2.3870  -12.8440   19.2512 C   0  0  0  0  0  0  0  0  0  0  0  0
    0.5331   -7.6964   16.2751 C   0  0  0  0  0  0  0  0  0  0  0  0
   -0.6740  -10.8737   18.0482 C   0  0  0  0  0  0  0  0  0  0  0  0
    5.6751  -10.5870   29.7637 O   0  0  0  0  0  0  0  0  0  0  0  0
    1.7612   -5.6483   26.7172 C   0  0  0  0  0  0  0  0  0  0  0  0
    0.2221   -9.8326   17.4055 C   0  0  0  0  0  0  0  0  0  0  0  0
    4.3850   -9.0730   28.6745 C   0  0  0  0  0  0  0  0  0  0  0  0
  1  7  4  0
  1 22  4  0
  2 17  4  0
  2 20  4  0
  2 28  4  0
  3  6  1  0
  3 19  1  0
  4 19  1  0
  4 26  1  0
  5 17  4  0
  5 18  4  0
  6 20  1  0
  6 26  1  0
  7 24  4  0
  8 15  4  0
  8 24  4  0
  9 14  4  0
  9 21  4  0
 10 12  4  0
 10 27  4  0
 11 12  4  0
 11 23  4  0
 13 23  4  0
 13 27  4  0
 14 20  4  0
 15 22  4  0
 16 18  4  0
 16 25  2  0
 16 28  4  0
 21 28  4  0
 24 27  1  0
M  END
$$$$

 Created by Python create_sdf_string function

 28 31  0  0  0  0  0  0  0  0999 V2000
   -1.0054  -13.0622   19.1198 C   0  0  0  0  0  0  0  0  0  0  0  0
    3.1478   -8.5360   28.5161 C   0  0  0  0  0  0  0  0  0  0  0  0
    0.5798   -7.1906   27.9330 C   0  0  0  0  0  0  0  0  0  0  0  0
    0.3978   -5.1561   26.6955 C   0  0  0  0  0  0  0  0  0  0  0  0
    2.3063  -10.0533   30.0125 C   0  0  0  0  0  0  0  0  0  0  0  0
    1.8591   -6.8254   27.4685 N   0  0  0  0  0  0  0  0  0  0  0  0
   -0.2167  -12.1055   18.5568 C   0  0  0  0  0  0  0  0  0  0  0  0
   -2.0661  -10.6994   18.1916 C   0  0  0  0  0  0  0  0  0  0  0  0
    5.2703   -7.5691   27.1123 C   0  0  0  0  0  0  0  0  0  0  0  0
    1.6204   -9.9887   17.2935 C   0  0  0  0  0  0  0  0  0  0  0  0
    1.8931   -7.9265   16.2047 C   0  0  0  0  0  0  0  0  0  0  0  0
    2.4396   -9.0801   16.7132 C   0  0  0  0  0  0  0  0  0  0  0  0
   -0.2575   -8.6234   16.8582 C   0  0  0  0  0  0  0  0  0  0  0  0
    4.0614   -7.0367   27.0106 N   0  0  0  0  0  0  0  0  0  0  0  0
   -2.9133  -11.6279   18.7578 C   0  0  0  0  0  0  0  0  0  0  0  0
    4.5688  -10.1291   29.5758 C   0  0  0  0  0  0  0  0  0  0  0  0
    2.1008   -9.0410   29.1852 N   0  0  0  0  0  0  0  0  0  0  0  0
    3.4829  -10.5697   30.2091 N   0  0  0  0  0  0  0  0  0  0  0  0
   -0.3363   -6.1172   27.5628 C   0  0  0  0  0  0  0  0  0  0  0  0
    3.0331   -7.4400   27.6362 C   0  0  0  0  0  0  0  0  0  0  0  0
    5.4553   -8.5933   27.9644 C   0  0  0  0  0  0  0  0  0  0  0  0
   -2.3870  -12.8440   19.2512 C   0  0  0  0  0  0  0  0  0  0  0  0
    0.5331   -7.6964   16.2751 C   0  0  0  0  0  0  0  0  0  0  0  0
   -0.6740  -10.8737   18.0482 C   0  0  0  0  0  0  0  0  0  0  0  0
    5.6751  -10.5870   29.7637 O   0  0  0  0  0  0  0  0  0  0  0  0
    1.7612   -5.6483   26.7172 C   0  0  0  0  0  0  0  0  0  0  0  0
    0.2221   -9.8326   17.4055 C   0  0  0  0  0  0  0  0  0  0  0  0
    4.3850   -9.0730   28.6745 C   0  0  0  0  0  0  0  0  0  0  0  0
  1  7  4  0
  1 22  4  0
  2 17  4  0
  2 20  4  0
  2 28  4  0
  3  6  1  0
  3 19  1  0
  4 19  1  0
  4 26  1  0
  5 17  4  0
  5 18  4  0
  6 20  1  0
  6 26  1  0
  7 24  4  0
  8 15  4  0
  8 24  4  0
  9 14  4  0
  9 21  4  0
 10 12  4  0
 10 27  4  0
 11 12  4  0
 11 23  4  0
 13 23  4  0
 13 27  4  0
 14 20  4  0
 15 22  4  0
 16 18  4  0
 16 25  2  0
 16 28  4  0
 21 28  4  0
 24 27  1  0
M  END
$$$$

 Created by Python create_sdf_string function

 28 31  0  0  0  0  0  0  0  0999 V2000
   -1.0054  -13.0622   19.1198 C   0  0  0  0  0  0  0  0  0  0  0  0
    3.1478   -8.5360   28.5161 C   0  0  0  0  0  0  0  0  0  0  0  0
    0.5798   -7.1906   27.9330 C   0  0  0  0  0  0  0  0  0  0  0  0
    0.3978   -5.1561   26.6955 C   0  0  0  0  0  0  0  0  0  0  0  0
    2.3063  -10.0533   30.0125 C   0  0  0  0  0  0  0  0  0  0  0  0
    1.8591   -6.8254   27.4685 N   0  0  0  0  0  0  0  0  0  0  0  0
   -0.2167  -12.1055   18.5568 C   0  0  0  0  0  0  0  0  0  0  0  0
   -2.0661  -10.6994   18.1916 C   0  0  0  0  0  0  0  0  0  0  0  0
    5.2703   -7.5691   27.1123 C   0  0  0  0  0  0  0  0  0  0  0  0
    1.6204   -9.9887   17.2935 C   0  0  0  0  0  0  0  0  0  0  0  0
    1.8931   -7.9265   16.2047 C   0  0  0  0  0  0  0  0  0  0  0  0
    2.4396   -9.0801   16.7132 C   0  0  0  0  0  0  0  0  0  0  0  0
   -0.2575   -8.6234   16.8582 C   0  0  0  0  0  0  0  0  0  0  0  0
    4.0614   -7.0367   27.0106 N   0  0  0  0  0  0  0  0  0  0  0  0
   -2.9133  -11.6279   18.7578 C   0  0  0  0  0  0  0  0  0  0  0  0
    4.5688  -10.1291   29.5758 C   0  0  0  0  0  0  0  0  0  0  0  0
    2.1008   -9.0410   29.1852 N   0  0  0  0  0  0  0  0  0  0  0  0
    3.4829  -10.5697   30.2091 N   0  0  0  0  0  0  0  0  0  0  0  0
   -0.3363   -6.1172   27.5628 C   0  0  0  0  0  0  0  0  0  0  0  0
    3.0331   -7.4400   27.6362 C   0  0  0  0  0  0  0  0  0  0  0  0
    5.4553   -8.5933   27.9644 C   0  0  0  0  0  0  0  0  0  0  0  0
   -2.3870  -12.8440   19.2512 C   0  0  0  0  0  0  0  0  0  0  0  0
    0.5331   -7.6964   16.2751 C   0  0  0  0  0  0  0  0  0  0  0  0
   -0.6740  -10.8737   18.0482 C   0  0  0  0  0  0  0  0  0  0  0  0
    5.6751  -10.5870   29.7637 O   0  0  0  0  0  0  0  0  0  0  0  0
    1.7612   -5.6483   26.7172 C   0  0  0  0  0  0  0  0  0  0  0  0
    0.2221   -9.8326   17.4055 C   0  0  0  0  0  0  0  0  0  0  0  0
    4.3850   -9.0730   28.6745 C   0  0  0  0  0  0  0  0  0  0  0  0
  1  7  4  0
  1 22  4  0
  2 17  4  0
  2 20  4  0
  2 28  4  0
  3  6  1  0
  3 19  1  0
  4 19  1  0
  4 26  1  0
  5 17  4  0
  5 18  4  0
  6 20  1  0
  6 26  1  0
  7 24  4  0
  8 15  4  0
  8 24  4  0
  9 14  4  0
  9 21  4  0
 10 12  4  0
 10 27  4  0
 11 12  4  0
 11 23  4  0
 13 23  4  0
 13 27  4  0
 14 20  4  0
 15 22  4  0
 16 18  4  0
 16 25  2  0
 16 28  4  0
 21 28  4  0
 24 27  1  0
M  END
$$$$

 Created by Python create_sdf_string function

 28 31  0  0  0  0  0  0  0  0999 V2000
   -1.0054  -13.0622   19.1198 C   0  0  0  0  0  0  0  0  0  0  0  0
    3.1478   -8.5360   28.5161 C   0  0  0  0  0  0  0  0  0  0  0  0
    0.5798   -7.1906   27.9330 C   0  0  0  0  0  0  0  0  0  0  0  0
    0.3978   -5.1561   26.6955 C   0  0  0  0  0  0  0  0  0  0  0  0
    2.3063  -10.0533   30.0125 C   0  0  0  0  0  0  0  0  0  0  0  0
    1.8591   -6.8254   27.4685 N   0  0  0  0  0  0  0  0  0  0  0  0
   -0.2167  -12.1055   18.5568 C   0  0  0  0  0  0  0  0  0  0  0  0
   -2.0661  -10.6994   18.1916 C   0  0  0  0  0  0  0  0  0  0  0  0
    5.2703   -7.5691   27.1123 C   0  0  0  0  0  0  0  0  0  0  0  0
    1.6204   -9.9887   17.2935 C   0  0  0  0  0  0  0  0  0  0  0  0
    1.8931   -7.9265   16.2047 C   0  0  0  0  0  0  0  0  0  0  0  0
    2.4396   -9.0801   16.7132 C   0  0  0  0  0  0  0  0  0  0  0  0
   -0.2575   -8.6234   16.8582 C   0  0  0  0  0  0  0  0  0  0  0  0
    4.0614   -7.0367   27.0106 N   0  0  0  0  0  0  0  0  0  0  0  0
   -2.9133  -11.6279   18.7578 C   0  0  0  0  0  0  0  0  0  0  0  0
    4.5688  -10.1291   29.5758 C   0  0  0  0  0  0  0  0  0  0  0  0
    2.1008   -9.0410   29.1852 N   0  0  0  0  0  0  0  0  0  0  0  0
    3.4829  -10.5697   30.2091 N   0  0  0  0  0  0  0  0  0  0  0  0
   -0.3363   -6.1172   27.5628 C   0  0  0  0  0  0  0  0  0  0  0  0
    3.0331   -7.4400   27.6362 C   0  0  0  0  0  0  0  0  0  0  0  0
    5.4553   -8.5933   27.9644 C   0  0  0  0  0  0  0  0  0  0  0  0
   -2.3870  -12.8440   19.2512 C   0  0  0  0  0  0  0  0  0  0  0  0
    0.5331   -7.6964   16.2751 C   0  0  0  0  0  0  0  0  0  0  0  0
   -0.6740  -10.8737   18.0482 C   0  0  0  0  0  0  0  0  0  0  0  0
    5.6751  -10.5870   29.7637 O   0  0  0  0  0  0  0  0  0  0  0  0
    1.7612   -5.6483   26.7172 C   0  0  0  0  0  0  0  0  0  0  0  0
    0.2221   -9.8326   17.4055 C   0  0  0  0  0  0  0  0  0  0  0  0
    4.3850   -9.0730   28.6745 C   0  0  0  0  0  0  0  0  0  0  0  0
  1  7  4  0
  1 22  4  0
  2 17  4  0
  2 20  4  0
  2 28  4  0
  3  6  1  0
  3 19  1  0
  4 19  1  0
  4 26  1  0
  5 17  4  0
  5 18  4  0
  6 20  1  0
  6 26  1  0
  7 24  4  0
  8 15  4  0
  8 24  4  0
  9 14  4  0
  9 21  4  0
 10 12  4  0
 10 27  4  0
 11 12  4  0
 11 23  4  0
 13 23  4  0
 13 27  4  0
 14 20  4  0
 15 22  4  0
 16 18  4  0
 16 25  2  0
 16 28  4  0
 21 28  4  0
 24 27  1  0
M  END
$$$$

 Created by Python create_sdf_string function

 28 31  0  0  0  0  0  0  0  0999 V2000
   -1.0054  -13.0622   19.1198 C   0  0  0  0  0  0  0  0  0  0  0  0
    3.1478   -8.5360   28.5161 C   0  0  0  0  0  0  0  0  0  0  0  0
    0.5798   -7.1906   27.9330 C   0  0  0  0  0  0  0  0  0  0  0  0
    0.3978   -5.1561   26.6955 C   0  0  0  0  0  0  0  0  0  0  0  0
    2.3063  -10.0533   30.0125 C   0  0  0  0  0  0  0  0  0  0  0  0
    1.8591   -6.8254   27.4685 N   0  0  0  0  0  0  0  0  0  0  0  0
   -0.2167  -12.1055   18.5568 C   0  0  0  0  0  0  0  0  0  0  0  0
   -2.0661  -10.6994   18.1916 C   0  0  0  0  0  0  0  0  0  0  0  0
    5.2703   -7.5691   27.1123 C   0  0  0  0  0  0  0  0  0  0  0  0
    1.6204   -9.9887   17.2935 C   0  0  0  0  0  0  0  0  0  0  0  0
    1.8931   -7.9265   16.2047 C   0  0  0  0  0  0  0  0  0  0  0  0
    2.4396   -9.0801   16.7132 C   0  0  0  0  0  0  0  0  0  0  0  0
   -0.2575   -8.6234   16.8582 C   0  0  0  0  0  0  0  0  0  0  0  0
    4.0614   -7.0367   27.0106 N   0  0  0  0  0  0  0  0  0  0  0  0
   -2.9133  -11.6279   18.7578 C   0  0  0  0  0  0  0  0  0  0  0  0
    4.5688  -10.1291   29.5758 C   0  0  0  0  0  0  0  0  0  0  0  0
    2.1008   -9.0410   29.1852 N   0  0  0  0  0  0  0  0  0  0  0  0
    3.4829  -10.5697   30.2091 N   0  0  0  0  0  0  0  0  0  0  0  0
   -0.3363   -6.1172   27.5628 C   0  0  0  0  0  0  0  0  0  0  0  0
    3.0331   -7.4400   27.6362 C   0  0  0  0  0  0  0  0  0  0  0  0
    5.4553   -8.5933   27.9644 C   0  0  0  0  0  0  0  0  0  0  0  0
   -2.3870  -12.8440   19.2512 C   0  0  0  0  0  0  0  0  0  0  0  0
    0.5331   -7.6964   16.2751 C   0  0  0  0  0  0  0  0  0  0  0  0
   -0.6740  -10.8737   18.0482 C   0  0  0  0  0  0  0  0  0  0  0  0
    5.6751  -10.5870   29.7637 O   0  0  0  0  0  0  0  0  0  0  0  0
    1.7612   -5.6483   26.7172 C   0  0  0  0  0  0  0  0  0  0  0  0
    0.2221   -9.8326   17.4055 C   0  0  0  0  0  0  0  0  0  0  0  0
    4.3850   -9.0730   28.6745 C   0  0  0  0  0  0  0  0  0  0  0  0
  1  7  4  0
  1 22  4  0
  2 17  4  0
  2 20  4  0
  2 28  4  0
  3  6  1  0
  3 19  1  0
  4 19  1  0
  4 26  1  0
  5 17  4  0
  5 18  4  0
  6 20  1  0
  6 26  1  0
  7 24  4  0
  8 15  4  0
  8 24  4  0
  9 14  4  0
  9 21  4  0
 10 12  4  0
 10 27  4  0
 11 12  4  0
 11 23  4  0
 13 23  4  0
 13 27  4  0
 14 20  4  0
 15 22  4  0
 16 18  4  0
 16 25  2  0
 16 28  4  0
 21 28  4  0
 24 27  1  0
M  END
$$$$

 Created by Python create_sdf_string function

 28 31  0  0  0  0  0  0  0  0999 V2000
   -1.0054  -13.0622   19.1198 C   0  0  0  0  0  0  0  0  0  0  0  0
    3.1478   -8.5360   28.5161 C   0  0  0  0  0  0  0  0  0  0  0  0
    0.5798   -7.1906   27.9330 C   0  0  0  0  0  0  0  0  0  0  0  0
    0.3978   -5.1561   26.6955 C   0  0  0  0  0  0  0  0  0  0  0  0
    2.3063  -10.0533   30.0125 C   0  0  0  0  0  0  0  0  0  0  0  0
    1.8591   -6.8254   27.4685 N   0  0  0  0  0  0  0  0  0  0  0  0
   -0.2167  -12.1055   18.5568 C   0  0  0  0  0  0  0  0  0  0  0  0
   -2.0661  -10.6994   18.1916 C   0  0  0  0  0  0  0  0  0  0  0  0
    5.2703   -7.5691   27.1123 C   0  0  0  0  0  0  0  0  0  0  0  0
    1.6204   -9.9887   17.2935 C   0  0  0  0  0  0  0  0  0  0  0  0
    1.8931   -7.9265   16.2047 C   0  0  0  0  0  0  0  0  0  0  0  0
    2.4396   -9.0801   16.7132 C   0  0  0  0  0  0  0  0  0  0  0  0
   -0.2575   -8.6234   16.8582 C   0  0  0  0  0  0  0  0  0  0  0  0
    4.0614   -7.0367   27.0106 N   0  0  0  0  0  0  0  0  0  0  0  0
   -2.9133  -11.6279   18.7578 C   0  0  0  0  0  0  0  0  0  0  0  0
    4.5688  -10.1291   29.5758 C   0  0  0  0  0  0  0  0  0  0  0  0
    2.1008   -9.0410   29.1852 N   0  0  0  0  0  0  0  0  0  0  0  0
    3.4829  -10.5697   30.2091 N   0  0  0  0  0  0  0  0  0  0  0  0
   -0.3363   -6.1172   27.5628 C   0  0  0  0  0  0  0  0  0  0  0  0
    3.0331   -7.4400   27.6362 C   0  0  0  0  0  0  0  0  0  0  0  0
    5.4553   -8.5933   27.9644 C   0  0  0  0  0  0  0  0  0  0  0  0
   -2.3870  -12.8440   19.2512 C   0  0  0  0  0  0  0  0  0  0  0  0
    0.5331   -7.6964   16.2751 C   0  0  0  0  0  0  0  0  0  0  0  0
   -0.6740  -10.8737   18.0482 C   0  0  0  0  0  0  0  0  0  0  0  0
    5.6751  -10.5870   29.7637 O   0  0  0  0  0  0  0  0  0  0  0  0
    1.7612   -5.6483   26.7172 C   0  0  0  0  0  0  0  0  0  0  0  0
    0.2221   -9.8326   17.4055 C   0  0  0  0  0  0  0  0  0  0  0  0
    4.3850   -9.0730   28.6745 C   0  0  0  0  0  0  0  0  0  0  0  0
  1  7  4  0
  1 22  4  0
  2 17  4  0
  2 20  4  0
  2 28  4  0
  3  6  1  0
  3 19  1  0
  4 19  1  0
  4 26  1  0
  5 17  4  0
  5 18  4  0
  6 20  1  0
  6 26  1  0
  7 24  4  0
  8 15  4  0
  8 24  4  0
  9 14  4  0
  9 21  4  0
 10 12  4  0
 10 27  4  0
 11 12  4  0
 11 23  4  0
 13 23  4  0
 13 27  4  0
 14 20  4  0
 15 22  4  0
 16 18  4  0
 16 25  2  0
 16 28  4  0
 21 28  4  0
 24 27  1  0
M  END
$$$$

 Created by Python create_sdf_string function

 28 31  0  0  0  0  0  0  0  0999 V2000
   -1.0054  -13.0622   19.1198 C   0  0  0  0  0  0  0  0  0  0  0  0
    3.1478   -8.5360   28.5161 C   0  0  0  0  0  0  0  0  0  0  0  0
    0.5798   -7.1906   27.9330 C   0  0  0  0  0  0  0  0  0  0  0  0
    0.3978   -5.1561   26.6955 C   0  0  0  0  0  0  0  0  0  0  0  0
    2.3063  -10.0533   30.0125 C   0  0  0  0  0  0  0  0  0  0  0  0
    1.8591   -6.8254   27.4685 N   0  0  0  0  0  0  0  0  0  0  0  0
   -0.2167  -12.1055   18.5568 C   0  0  0  0  0  0  0  0  0  0  0  0
   -2.0661  -10.6994   18.1916 C   0  0  0  0  0  0  0  0  0  0  0  0
    5.2703   -7.5691   27.1123 C   0  0  0  0  0  0  0  0  0  0  0  0
    1.6204   -9.9887   17.2935 C   0  0  0  0  0  0  0  0  0  0  0  0
    1.8931   -7.9265   16.2047 C   0  0  0  0  0  0  0  0  0  0  0  0
    2.4396   -9.0801   16.7132 C   0  0  0  0  0  0  0  0  0  0  0  0
   -0.2575   -8.6234   16.8582 C   0  0  0  0  0  0  0  0  0  0  0  0
    4.0614   -7.0367   27.0106 N   0  0  0  0  0  0  0  0  0  0  0  0
   -2.9133  -11.6279   18.7578 C   0  0  0  0  0  0  0  0  0  0  0  0
    4.5688  -10.1291   29.5758 C   0  0  0  0  0  0  0  0  0  0  0  0
    2.1008   -9.0410   29.1852 N   0  0  0  0  0  0  0  0  0  0  0  0
    3.4829  -10.5697   30.2091 N   0  0  0  0  0  0  0  0  0  0  0  0
   -0.3363   -6.1172   27.5628 C   0  0  0  0  0  0  0  0  0  0  0  0
    3.0331   -7.4400   27.6362 C   0  0  0  0  0  0  0  0  0  0  0  0
    5.4553   -8.5933   27.9644 C   0  0  0  0  0  0  0  0  0  0  0  0
   -2.3870  -12.8440   19.2512 C   0  0  0  0  0  0  0  0  0  0  0  0
    0.5331   -7.6964   16.2751 C   0  0  0  0  0  0  0  0  0  0  0  0
   -0.6740  -10.8737   18.0482 C   0  0  0  0  0  0  0  0  0  0  0  0
    5.6751  -10.5870   29.7637 O   0  0  0  0  0  0  0  0  0  0  0  0
    1.7612   -5.6483   26.7172 C   0  0  0  0  0  0  0  0  0  0  0  0
    0.2221   -9.8326   17.4055 C   0  0  0  0  0  0  0  0  0  0  0  0
    4.3850   -9.0730   28.6745 C   0  0  0  0  0  0  0  0  0  0  0  0
  1  7  4  0
  1 22  4  0
  2 17  4  0
  2 20  4  0
  2 28  4  0
  3  6  1  0
  3 19  1  0
  4 19  1  0
  4 26  1  0
  5 17  4  0
  5 18  4  0
  6 20  1  0
  6 26  1  0
  7 24  4  0
  8 15  4  0
  8 24  4  0
  9 14  4  0
  9 21  4  0
 10 12  4  0
 10 27  4  0
 11 12  4  0
 11 23  4  0
 13 23  4  0
 13 27  4  0
 14 20  4  0
 15 22  4  0
 16 18  4  0
 16 25  2  0
 16 28  4  0
 21 28  4  0
 24 27  1  0
M  END
$$$$

 Created by Python create_sdf_string function

 28 31  0  0  0  0  0  0  0  0999 V2000
   -1.0054  -13.0622   19.1198 C   0  0  0  0  0  0  0  0  0  0  0  0
    3.1478   -8.5360   28.5161 C   0  0  0  0  0  0  0  0  0  0  0  0
    0.5798   -7.1906   27.9330 C   0  0  0  0  0  0  0  0  0  0  0  0
    0.3978   -5.1561   26.6955 C   0  0  0  0  0  0  0  0  0  0  0  0
    2.3063  -10.0533   30.0125 C   0  0  0  0  0  0  0  0  0  0  0  0
    1.8591   -6.8254   27.4685 N   0  0  0  0  0  0  0  0  0  0  0  0
   -0.2167  -12.1055   18.5568 C   0  0  0  0  0  0  0  0  0  0  0  0
   -2.0661  -10.6994   18.1916 C   0  0  0  0  0  0  0  0  0  0  0  0
    5.2703   -7.5691   27.1123 C   0  0  0  0  0  0  0  0  0  0  0  0
    1.6204   -9.9887   17.2935 C   0  0  0  0  0  0  0  0  0  0  0  0
    1.8931   -7.9265   16.2047 C   0  0  0  0  0  0  0  0  0  0  0  0
    2.4396   -9.0801   16.7132 C   0  0  0  0  0  0  0  0  0  0  0  0
   -0.2575   -8.6234   16.8582 C   0  0  0  0  0  0  0  0  0  0  0  0
    4.0614   -7.0367   27.0106 N   0  0  0  0  0  0  0  0  0  0  0  0
   -2.9133  -11.6279   18.7578 C   0  0  0  0  0  0  0  0  0  0  0  0
    4.5688  -10.1291   29.5758 C   0  0  0  0  0  0  0  0  0  0  0  0
    2.1008   -9.0410   29.1852 N   0  0  0  0  0  0  0  0  0  0  0  0
    3.4829  -10.5697   30.2091 N   0  0  0  0  0  0  0  0  0  0  0  0
   -0.3363   -6.1172   27.5628 C   0  0  0  0  0  0  0  0  0  0  0  0
    3.0331   -7.4400   27.6362 C   0  0  0  0  0  0  0  0  0  0  0  0
    5.4553   -8.5933   27.9644 C   0  0  0  0  0  0  0  0  0  0  0  0
   -2.3870  -12.8440   19.2512 C   0  0  0  0  0  0  0  0  0  0  0  0
    0.5331   -7.6964   16.2751 C   0  0  0  0  0  0  0  0  0  0  0  0
   -0.6740  -10.8737   18.0482 C   0  0  0  0  0  0  0  0  0  0  0  0
    5.6751  -10.5870   29.7637 O   0  0  0  0  0  0  0  0  0  0  0  0
    1.7612   -5.6483   26.7172 C   0  0  0  0  0  0  0  0  0  0  0  0
    0.2221   -9.8326   17.4055 C   0  0  0  0  0  0  0  0  0  0  0  0
    4.3850   -9.0730   28.6745 C   0  0  0  0  0  0  0  0  0  0  0  0
  1  7  4  0
  1 22  4  0
  2 17  4  0
  2 20  4  0
  2 28  4  0
  3  6  1  0
  3 19  1  0
  4 19  1  0
  4 26  1  0
  5 17  4  0
  5 18  4  0
  6 20  1  0
  6 26  1  0
  7 24  4  0
  8 15  4  0
  8 24  4  0
  9 14  4  0
  9 21  4  0
 10 12  4  0
 10 27  4  0
 11 12  4  0
 11 23  4  0
 13 23  4  0
 13 27  4  0
 14 20  4  0
 15 22  4  0
 16 18  4  0
 16 25  2  0
 16 28  4  0
 21 28  4  0
 24 27  1  0
M  END
$$$$

 Created by Python create_sdf_string function

 28 31  0  0  0  0  0  0  0  0999 V2000
   -1.0054  -13.0622   19.1198 C   0  0  0  0  0  0  0  0  0  0  0  0
    3.1478   -8.5360   28.5161 C   0  0  0  0  0  0  0  0  0  0  0  0
    0.5798   -7.1906   27.9330 C   0  0  0  0  0  0  0  0  0  0  0  0
    0.3978   -5.1561   26.6955 C   0  0  0  0  0  0  0  0  0  0  0  0
    2.3063  -10.0533   30.0125 C   0  0  0  0  0  0  0  0  0  0  0  0
    1.8591   -6.8254   27.4685 N   0  0  0  0  0  0  0  0  0  0  0  0
   -0.2167  -12.1055   18.5568 C   0  0  0  0  0  0  0  0  0  0  0  0
   -2.0661  -10.6994   18.1916 C   0  0  0  0  0  0  0  0  0  0  0  0
    5.2703   -7.5691   27.1123 C   0  0  0  0  0  0  0  0  0  0  0  0
    1.6204   -9.9887   17.2935 C   0  0  0  0  0  0  0  0  0  0  0  0
    1.8931   -7.9265   16.2047 C   0  0  0  0  0  0  0  0  0  0  0  0
    2.4396   -9.0801   16.7132 C   0  0  0  0  0  0  0  0  0  0  0  0
   -0.2575   -8.6234   16.8582 C   0  0  0  0  0  0  0  0  0  0  0  0
    4.0614   -7.0367   27.0106 N   0  0  0  0  0  0  0  0  0  0  0  0
   -2.9133  -11.6279   18.7578 C   0  0  0  0  0  0  0  0  0  0  0  0
    4.5688  -10.1291   29.5758 C   0  0  0  0  0  0  0  0  0  0  0  0
    2.1008   -9.0410   29.1852 N   0  0  0  0  0  0  0  0  0  0  0  0
    3.4829  -10.5697   30.2091 N   0  0  0  0  0  0  0  0  0  0  0  0
   -0.3363   -6.1172   27.5628 C   0  0  0  0  0  0  0  0  0  0  0  0
    3.0331   -7.4400   27.6362 C   0  0  0  0  0  0  0  0  0  0  0  0
    5.4553   -8.5933   27.9644 C   0  0  0  0  0  0  0  0  0  0  0  0
   -2.3870  -12.8440   19.2512 C   0  0  0  0  0  0  0  0  0  0  0  0
    0.5331   -7.6964   16.2751 C   0  0  0  0  0  0  0  0  0  0  0  0
   -0.6740  -10.8737   18.0482 C   0  0  0  0  0  0  0  0  0  0  0  0
    5.6751  -10.5870   29.7637 O   0  0  0  0  0  0  0  0  0  0  0  0
    1.7612   -5.6483   26.7172 C   0  0  0  0  0  0  0  0  0  0  0  0
    0.2221   -9.8326   17.4055 C   0  0  0  0  0  0  0  0  0  0  0  0
    4.3850   -9.0730   28.6745 C   0  0  0  0  0  0  0  0  0  0  0  0
  1  7  4  0
  1 22  4  0
  2 17  4  0
  2 20  4  0
  2 28  4  0
  3  6  1  0
  3 19  1  0
  4 19  1  0
  4 26  1  0
  5 17  4  0
  5 18  4  0
  6 20  1  0
  6 26  1  0
  7 24  4  0
  8 15  4  0
  8 24  4  0
  9 14  4  0
  9 21  4  0
 10 12  4  0
 10 27  4  0
 11 12  4  0
 11 23  4  0
 13 23  4  0
 13 27  4  0
 14 20  4  0
 15 22  4  0
 16 18  4  0
 16 25  2  0
 16 28  4  0
 21 28  4  0
 24 27  1  0
M  END
$$$$

 Created by Python create_sdf_string function

 28 31  0  0  0  0  0  0  0  0999 V2000
   -1.0054  -13.0622   19.1198 C   0  0  0  0  0  0  0  0  0  0  0  0
    3.1478   -8.5360   28.5161 C   0  0  0  0  0  0  0  0  0  0  0  0
    0.5798   -7.1906   27.9330 C   0  0  0  0  0  0  0  0  0  0  0  0
    0.3978   -5.1561   26.6955 C   0  0  0  0  0  0  0  0  0  0  0  0
    2.3063  -10.0533   30.0125 C   0  0  0  0  0  0  0  0  0  0  0  0
    1.8591   -6.8254   27.4685 N   0  0  0  0  0  0  0  0  0  0  0  0
   -0.2167  -12.1055   18.5568 C   0  0  0  0  0  0  0  0  0  0  0  0
   -2.0661  -10.6994   18.1916 C   0  0  0  0  0  0  0  0  0  0  0  0
    5.2703   -7.5691   27.1123 C   0  0  0  0  0  0  0  0  0  0  0  0
    1.6204   -9.9887   17.2935 C   0  0  0  0  0  0  0  0  0  0  0  0
    1.8931   -7.9265   16.2047 C   0  0  0  0  0  0  0  0  0  0  0  0
    2.4396   -9.0801   16.7132 C   0  0  0  0  0  0  0  0  0  0  0  0
   -0.2575   -8.6234   16.8582 C   0  0  0  0  0  0  0  0  0  0  0  0
    4.0614   -7.0367   27.0106 N   0  0  0  0  0  0  0  0  0  0  0  0
   -2.9133  -11.6279   18.7578 C   0  0  0  0  0  0  0  0  0  0  0  0
    4.5688  -10.1291   29.5758 C   0  0  0  0  0  0  0  0  0  0  0  0
    2.1008   -9.0410   29.1852 N   0  0  0  0  0  0  0  0  0  0  0  0
    3.4829  -10.5697   30.2091 N   0  0  0  0  0  0  0  0  0  0  0  0
   -0.3363   -6.1172   27.5628 C   0  0  0  0  0  0  0  0  0  0  0  0
    3.0331   -7.4400   27.6362 C   0  0  0  0  0  0  0  0  0  0  0  0
    5.4553   -8.5933   27.9644 C   0  0  0  0  0  0  0  0  0  0  0  0
   -2.3870  -12.8440   19.2512 C   0  0  0  0  0  0  0  0  0  0  0  0
    0.5331   -7.6964   16.2751 C   0  0  0  0  0  0  0  0  0  0  0  0
   -0.6740  -10.8737   18.0482 C   0  0  0  0  0  0  0  0  0  0  0  0
    5.6751  -10.5870   29.7637 O   0  0  0  0  0  0  0  0  0  0  0  0
    1.7612   -5.6483   26.7172 C   0  0  0  0  0  0  0  0  0  0  0  0
    0.2221   -9.8326   17.4055 C   0  0  0  0  0  0  0  0  0  0  0  0
    4.3850   -9.0730   28.6745 C   0  0  0  0  0  0  0  0  0  0  0  0
  1  7  4  0
  1 22  4  0
  2 17  4  0
  2 20  4  0
  2 28  4  0
  3  6  1  0
  3 19  1  0
  4 19  1  0
  4 26  1  0
  5 17  4  0
  5 18  4  0
  6 20  1  0
  6 26  1  0
  7 24  4  0
  8 15  4  0
  8 24  4  0
  9 14  4  0
  9 21  4  0
 10 12  4  0
 10 27  4  0
 11 12  4  0
 11 23  4  0
 13 23  4  0
 13 27  4  0
 14 20  4  0
 15 22  4  0
 16 18  4  0
 16 25  2  0
 16 28  4  0
 21 28  4  0
 24 27  1  0
M  END
$$$$

 Created by Python create_sdf_string function

 28 31  0  0  0  0  0  0  0  0999 V2000
   -1.0054  -13.0622   19.1198 C   0  0  0  0  0  0  0  0  0  0  0  0
    3.1478   -8.5360   28.5161 C   0  0  0  0  0  0  0  0  0  0  0  0
    0.5798   -7.1906   27.9330 C   0  0  0  0  0  0  0  0  0  0  0  0
    0.3978   -5.1561   26.6955 C   0  0  0  0  0  0  0  0  0  0  0  0
    2.3063  -10.0533   30.0125 C   0  0  0  0  0  0  0  0  0  0  0  0
    1.8591   -6.8254   27.4685 N   0  0  0  0  0  0  0  0  0  0  0  0
   -0.2167  -12.1055   18.5568 C   0  0  0  0  0  0  0  0  0  0  0  0
   -2.0661  -10.6994   18.1916 C   0  0  0  0  0  0  0  0  0  0  0  0
    5.2703   -7.5691   27.1123 C   0  0  0  0  0  0  0  0  0  0  0  0
    1.6204   -9.9887   17.2935 C   0  0  0  0  0  0  0  0  0  0  0  0
    1.8931   -7.9265   16.2047 C   0  0  0  0  0  0  0  0  0  0  0  0
    2.4396   -9.0801   16.7132 C   0  0  0  0  0  0  0  0  0  0  0  0
   -0.2575   -8.6234   16.8582 C   0  0  0  0  0  0  0  0  0  0  0  0
    4.0614   -7.0367   27.0106 N   0  0  0  0  0  0  0  0  0  0  0  0
   -2.9133  -11.6279   18.7578 C   0  0  0  0  0  0  0  0  0  0  0  0
    4.5688  -10.1291   29.5758 C   0  0  0  0  0  0  0  0  0  0  0  0
    2.1008   -9.0410   29.1852 N   0  0  0  0  0  0  0  0  0  0  0  0
    3.4829  -10.5697   30.2091 N   0  0  0  0  0  0  0  0  0  0  0  0
   -0.3363   -6.1172   27.5628 C   0  0  0  0  0  0  0  0  0  0  0  0
    3.0331   -7.4400   27.6362 C   0  0  0  0  0  0  0  0  0  0  0  0
    5.4553   -8.5933   27.9644 C   0  0  0  0  0  0  0  0  0  0  0  0
   -2.3870  -12.8440   19.2512 C   0  0  0  0  0  0  0  0  0  0  0  0
    0.5331   -7.6964   16.2751 C   0  0  0  0  0  0  0  0  0  0  0  0
   -0.6740  -10.8737   18.0482 C   0  0  0  0  0  0  0  0  0  0  0  0
    5.6751  -10.5870   29.7637 O   0  0  0  0  0  0  0  0  0  0  0  0
    1.7612   -5.6483   26.7172 C   0  0  0  0  0  0  0  0  0  0  0  0
    0.2221   -9.8326   17.4055 C   0  0  0  0  0  0  0  0  0  0  0  0
    4.3850   -9.0730   28.6745 C   0  0  0  0  0  0  0  0  0  0  0  0
  1  7  4  0
  1 22  4  0
  2 17  4  0
  2 20  4  0
  2 28  4  0
  3  6  1  0
  3 19  1  0
  4 19  1  0
  4 26  1  0
  5 17  4  0
  5 18  4  0
  6 20  1  0
  6 26  1  0
  7 24  4  0
  8 15  4  0
  8 24  4  0
  9 14  4  0
  9 21  4  0
 10 12  4  0
 10 27  4  0
 11 12  4  0
 11 23  4  0
 13 23  4  0
 13 27  4  0
 14 20  4  0
 15 22  4  0
 16 18  4  0
 16 25  2  0
 16 28  4  0
 21 28  4  0
 24 27  1  0
M  END
$$$$

 Created by Python create_sdf_string function

 28 31  0  0  0  0  0  0  0  0999 V2000
   -1.0054  -13.0622   19.1198 C   0  0  0  0  0  0  0  0  0  0  0  0
    3.1478   -8.5360   28.5161 C   0  0  0  0  0  0  0  0  0  0  0  0
    0.5798   -7.1906   27.9330 C   0  0  0  0  0  0  0  0  0  0  0  0
    0.3978   -5.1561   26.6955 C   0  0  0  0  0  0  0  0  0  0  0  0
    2.3063  -10.0533   30.0125 C   0  0  0  0  0  0  0  0  0  0  0  0
    1.8591   -6.8254   27.4685 N   0  0  0  0  0  0  0  0  0  0  0  0
   -0.2167  -12.1055   18.5568 C   0  0  0  0  0  0  0  0  0  0  0  0
   -2.0661  -10.6994   18.1916 C   0  0  0  0  0  0  0  0  0  0  0  0
    5.2703   -7.5691   27.1123 C   0  0  0  0  0  0  0  0  0  0  0  0
    1.6204   -9.9887   17.2935 C   0  0  0  0  0  0  0  0  0  0  0  0
    1.8931   -7.9265   16.2047 C   0  0  0  0  0  0  0  0  0  0  0  0
    2.4396   -9.0801   16.7132 C   0  0  0  0  0  0  0  0  0  0  0  0
   -0.2575   -8.6234   16.8582 C   0  0  0  0  0  0  0  0  0  0  0  0
    4.0614   -7.0367   27.0106 N   0  0  0  0  0  0  0  0  0  0  0  0
   -2.9133  -11.6279   18.7578 C   0  0  0  0  0  0  0  0  0  0  0  0
    4.5688  -10.1291   29.5758 C   0  0  0  0  0  0  0  0  0  0  0  0
    2.1008   -9.0410   29.1852 N   0  0  0  0  0  0  0  0  0  0  0  0
    3.4829  -10.5697   30.2091 N   0  0  0  0  0  0  0  0  0  0  0  0
   -0.3363   -6.1172   27.5628 C   0  0  0  0  0  0  0  0  0  0  0  0
    3.0331   -7.4400   27.6362 C   0  0  0  0  0  0  0  0  0  0  0  0
    5.4553   -8.5933   27.9644 C   0  0  0  0  0  0  0  0  0  0  0  0
   -2.3870  -12.8440   19.2512 C   0  0  0  0  0  0  0  0  0  0  0  0
    0.5331   -7.6964   16.2751 C   0  0  0  0  0  0  0  0  0  0  0  0
   -0.6740  -10.8737   18.0482 C   0  0  0  0  0  0  0  0  0  0  0  0
    5.6751  -10.5870   29.7637 O   0  0  0  0  0  0  0  0  0  0  0  0
    1.7612   -5.6483   26.7172 C   0  0  0  0  0  0  0  0  0  0  0  0
    0.2221   -9.8326   17.4055 C   0  0  0  0  0  0  0  0  0  0  0  0
    4.3850   -9.0730   28.6745 C   0  0  0  0  0  0  0  0  0  0  0  0
  1  7  4  0
  1 22  4  0
  2 17  4  0
  2 20  4  0
  2 28  4  0
  3  6  1  0
  3 19  1  0
  4 19  1  0
  4 26  1  0
  5 17  4  0
  5 18  4  0
  6 20  1  0
  6 26  1  0
  7 24  4  0
  8 15  4  0
  8 24  4  0
  9 14  4  0
  9 21  4  0
 10 12  4  0
 10 27  4  0
 11 12  4  0
 11 23  4  0
 13 23  4  0
 13 27  4  0
 14 20  4  0
 15 22  4  0
 16 18  4  0
 16 25  2  0
 16 28  4  0
 21 28  4  0
 24 27  1  0
M  END
$$$$

 Created by Python create_sdf_string function

 28 31  0  0  0  0  0  0  0  0999 V2000
   -1.0054  -13.0622   19.1198 C   0  0  0  0  0  0  0  0  0  0  0  0
    3.1478   -8.5360   28.5161 C   0  0  0  0  0  0  0  0  0  0  0  0
    0.5798   -7.1906   27.9330 C   0  0  0  0  0  0  0  0  0  0  0  0
    0.3978   -5.1561   26.6955 C   0  0  0  0  0  0  0  0  0  0  0  0
    2.3063  -10.0533   30.0125 C   0  0  0  0  0  0  0  0  0  0  0  0
    1.8591   -6.8254   27.4685 N   0  0  0  0  0  0  0  0  0  0  0  0
   -0.2167  -12.1055   18.5568 C   0  0  0  0  0  0  0  0  0  0  0  0
   -2.0661  -10.6994   18.1916 C   0  0  0  0  0  0  0  0  0  0  0  0
    5.2703   -7.5691   27.1123 C   0  0  0  0  0  0  0  0  0  0  0  0
    1.6204   -9.9887   17.2935 C   0  0  0  0  0  0  0  0  0  0  0  0
    1.8931   -7.9265   16.2047 C   0  0  0  0  0  0  0  0  0  0  0  0
    2.4396   -9.0801   16.7132 C   0  0  0  0  0  0  0  0  0  0  0  0
   -0.2575   -8.6234   16.8582 C   0  0  0  0  0  0  0  0  0  0  0  0
    4.0614   -7.0367   27.0106 N   0  0  0  0  0  0  0  0  0  0  0  0
   -2.9133  -11.6279   18.7578 C   0  0  0  0  0  0  0  0  0  0  0  0
    4.5688  -10.1291   29.5758 C   0  0  0  0  0  0  0  0  0  0  0  0
    2.1008   -9.0410   29.1852 N   0  0  0  0  0  0  0  0  0  0  0  0
    3.4829  -10.5697   30.2091 N   0  0  0  0  0  0  0  0  0  0  0  0
   -0.3363   -6.1172   27.5628 C   0  0  0  0  0  0  0  0  0  0  0  0
    3.0331   -7.4400   27.6362 C   0  0  0  0  0  0  0  0  0  0  0  0
    5.4553   -8.5933   27.9644 C   0  0  0  0  0  0  0  0  0  0  0  0
   -2.3870  -12.8440   19.2512 C   0  0  0  0  0  0  0  0  0  0  0  0
    0.5331   -7.6964   16.2751 C   0  0  0  0  0  0  0  0  0  0  0  0
   -0.6740  -10.8737   18.0482 C   0  0  0  0  0  0  0  0  0  0  0  0
    5.6751  -10.5870   29.7637 O   0  0  0  0  0  0  0  0  0  0  0  0
    1.7612   -5.6483   26.7172 C   0  0  0  0  0  0  0  0  0  0  0  0
    0.2221   -9.8326   17.4055 C   0  0  0  0  0  0  0  0  0  0  0  0
    4.3850   -9.0730   28.6745 C   0  0  0  0  0  0  0  0  0  0  0  0
  1  7  4  0
  1 22  4  0
  2 17  4  0
  2 20  4  0
  2 28  4  0
  3  6  1  0
  3 19  1  0
  4 19  1  0
  4 26  1  0
  5 17  4  0
  5 18  4  0
  6 20  1  0
  6 26  1  0
  7 24  4  0
  8 15  4  0
  8 24  4  0
  9 14  4  0
  9 21  4  0
 10 12  4  0
 10 27  4  0
 11 12  4  0
 11 23  4  0
 13 23  4  0
 13 27  4  0
 14 20  4  0
 15 22  4  0
 16 18  4  0
 16 25  2  0
 16 28  4  0
 21 28  4  0
 24 27  1  0
M  END
$$$$

 Created by Python create_sdf_string function

 28 31  0  0  0  0  0  0  0  0999 V2000
   -1.0054  -13.0622   19.1198 C   0  0  0  0  0  0  0  0  0  0  0  0
    3.1478   -8.5360   28.5161 C   0  0  0  0  0  0  0  0  0  0  0  0
    0.5798   -7.1906   27.9330 C   0  0  0  0  0  0  0  0  0  0  0  0
    0.3978   -5.1561   26.6955 C   0  0  0  0  0  0  0  0  0  0  0  0
    2.3063  -10.0533   30.0125 C   0  0  0  0  0  0  0  0  0  0  0  0
    1.8591   -6.8254   27.4685 N   0  0  0  0  0  0  0  0  0  0  0  0
   -0.2167  -12.1055   18.5568 C   0  0  0  0  0  0  0  0  0  0  0  0
   -2.0661  -10.6994   18.1916 C   0  0  0  0  0  0  0  0  0  0  0  0
    5.2703   -7.5691   27.1123 C   0  0  0  0  0  0  0  0  0  0  0  0
    1.6204   -9.9887   17.2935 C   0  0  0  0  0  0  0  0  0  0  0  0
    1.8931   -7.9265   16.2047 C   0  0  0  0  0  0  0  0  0  0  0  0
    2.4396   -9.0801   16.7132 C   0  0  0  0  0  0  0  0  0  0  0  0
   -0.2575   -8.6234   16.8582 C   0  0  0  0  0  0  0  0  0  0  0  0
    4.0614   -7.0367   27.0106 N   0  0  0  0  0  0  0  0  0  0  0  0
   -2.9133  -11.6279   18.7578 C   0  0  0  0  0  0  0  0  0  0  0  0
    4.5688  -10.1291   29.5758 C   0  0  0  0  0  0  0  0  0  0  0  0
    2.1008   -9.0410   29.1852 N   0  0  0  0  0  0  0  0  0  0  0  0
    3.4829  -10.5697   30.2091 N   0  0  0  0  0  0  0  0  0  0  0  0
   -0.3363   -6.1172   27.5628 C   0  0  0  0  0  0  0  0  0  0  0  0
    3.0331   -7.4400   27.6362 C   0  0  0  0  0  0  0  0  0  0  0  0
    5.4553   -8.5933   27.9644 C   0  0  0  0  0  0  0  0  0  0  0  0
   -2.3870  -12.8440   19.2512 C   0  0  0  0  0  0  0  0  0  0  0  0
    0.5331   -7.6964   16.2751 C   0  0  0  0  0  0  0  0  0  0  0  0
   -0.6740  -10.8737   18.0482 C   0  0  0  0  0  0  0  0  0  0  0  0
    5.6751  -10.5870   29.7637 O   0  0  0  0  0  0  0  0  0  0  0  0
    1.7612   -5.6483   26.7172 C   0  0  0  0  0  0  0  0  0  0  0  0
    0.2221   -9.8326   17.4055 C   0  0  0  0  0  0  0  0  0  0  0  0
    4.3850   -9.0730   28.6745 C   0  0  0  0  0  0  0  0  0  0  0  0
  1  7  4  0
  1 22  4  0
  2 17  4  0
  2 20  4  0
  2 28  4  0
  3  6  1  0
  3 19  1  0
  4 19  1  0
  4 26  1  0
  5 17  4  0
  5 18  4  0
  6 20  1  0
  6 26  1  0
  7 24  4  0
  8 15  4  0
  8 24  4  0
  9 14  4  0
  9 21  4  0
 10 12  4  0
 10 27  4  0
 11 12  4  0
 11 23  4  0
 13 23  4  0
 13 27  4  0
 14 20  4  0
 15 22  4  0
 16 18  4  0
 16 25  2  0
 16 28  4  0
 21 28  4  0
 24 27  1  0
M  END
$$$$

 Created by Python create_sdf_string function

 28 31  0  0  0  0  0  0  0  0999 V2000
   -1.0054  -13.0622   19.1198 C   0  0  0  0  0  0  0  0  0  0  0  0
    3.1478   -8.5360   28.5161 C   0  0  0  0  0  0  0  0  0  0  0  0
    0.5798   -7.1906   27.9330 C   0  0  0  0  0  0  0  0  0  0  0  0
    0.3978   -5.1561   26.6955 C   0  0  0  0  0  0  0  0  0  0  0  0
    2.3063  -10.0533   30.0125 C   0  0  0  0  0  0  0  0  0  0  0  0
    1.8591   -6.8254   27.4685 N   0  0  0  0  0  0  0  0  0  0  0  0
   -0.2167  -12.1055   18.5568 C   0  0  0  0  0  0  0  0  0  0  0  0
   -2.0661  -10.6994   18.1916 C   0  0  0  0  0  0  0  0  0  0  0  0
    5.2703   -7.5691   27.1123 C   0  0  0  0  0  0  0  0  0  0  0  0
    1.6204   -9.9887   17.2935 C   0  0  0  0  0  0  0  0  0  0  0  0
    1.8931   -7.9265   16.2047 C   0  0  0  0  0  0  0  0  0  0  0  0
    2.4396   -9.0801   16.7132 C   0  0  0  0  0  0  0  0  0  0  0  0
   -0.2575   -8.6234   16.8582 C   0  0  0  0  0  0  0  0  0  0  0  0
    4.0614   -7.0367   27.0106 N   0  0  0  0  0  0  0  0  0  0  0  0
   -2.9133  -11.6279   18.7578 C   0  0  0  0  0  0  0  0  0  0  0  0
    4.5688  -10.1291   29.5758 C   0  0  0  0  0  0  0  0  0  0  0  0
    2.1008   -9.0410   29.1852 N   0  0  0  0  0  0  0  0  0  0  0  0
    3.4829  -10.5697   30.2091 N   0  0  0  0  0  0  0  0  0  0  0  0
   -0.3363   -6.1172   27.5628 C   0  0  0  0  0  0  0  0  0  0  0  0
    3.0331   -7.4400   27.6362 C   0  0  0  0  0  0  0  0  0  0  0  0
    5.4553   -8.5933   27.9644 C   0  0  0  0  0  0  0  0  0  0  0  0
   -2.3870  -12.8440   19.2512 C   0  0  0  0  0  0  0  0  0  0  0  0
    0.5331   -7.6964   16.2751 C   0  0  0  0  0  0  0  0  0  0  0  0
   -0.6740  -10.8737   18.0482 C   0  0  0  0  0  0  0  0  0  0  0  0
    5.6751  -10.5870   29.7637 O   0  0  0  0  0  0  0  0  0  0  0  0
    1.7612   -5.6483   26.7172 C   0  0  0  0  0  0  0  0  0  0  0  0
    0.2221   -9.8326   17.4055 C   0  0  0  0  0  0  0  0  0  0  0  0
    4.3850   -9.0730   28.6745 C   0  0  0  0  0  0  0  0  0  0  0  0
  1  7  4  0
  1 22  4  0
  2 17  4  0
  2 20  4  0
  2 28  4  0
  3  6  1  0
  3 19  1  0
  4 19  1  0
  4 26  1  0
  5 17  4  0
  5 18  4  0
  6 20  1  0
  6 26  1  0
  7 24  4  0
  8 15  4  0
  8 24  4  0
  9 14  4  0
  9 21  4  0
 10 12  4  0
 10 27  4  0
 11 12  4  0
 11 23  4  0
 13 23  4  0
 13 27  4  0
 14 20  4  0
 15 22  4  0
 16 18  4  0
 16 25  2  0
 16 28  4  0
 21 28  4  0
 24 27  1  0
M  END
$$$$

 Created by Python create_sdf_string function

 28 31  0  0  0  0  0  0  0  0999 V2000
   -1.0054  -13.0622   19.1198 C   0  0  0  0  0  0  0  0  0  0  0  0
    3.1478   -8.5360   28.5161 C   0  0  0  0  0  0  0  0  0  0  0  0
    0.5798   -7.1906   27.9330 C   0  0  0  0  0  0  0  0  0  0  0  0
    0.3978   -5.1561   26.6955 C   0  0  0  0  0  0  0  0  0  0  0  0
    2.3063  -10.0533   30.0125 C   0  0  0  0  0  0  0  0  0  0  0  0
    1.8591   -6.8254   27.4685 N   0  0  0  0  0  0  0  0  0  0  0  0
   -0.2167  -12.1055   18.5568 C   0  0  0  0  0  0  0  0  0  0  0  0
   -2.0661  -10.6994   18.1916 C   0  0  0  0  0  0  0  0  0  0  0  0
    5.2703   -7.5691   27.1123 C   0  0  0  0  0  0  0  0  0  0  0  0
    1.6204   -9.9887   17.2935 C   0  0  0  0  0  0  0  0  0  0  0  0
    1.8931   -7.9265   16.2047 C   0  0  0  0  0  0  0  0  0  0  0  0
    2.4396   -9.0801   16.7132 C   0  0  0  0  0  0  0  0  0  0  0  0
   -0.2575   -8.6234   16.8582 C   0  0  0  0  0  0  0  0  0  0  0  0
    4.0614   -7.0367   27.0106 N   0  0  0  0  0  0  0  0  0  0  0  0
   -2.9133  -11.6279   18.7578 C   0  0  0  0  0  0  0  0  0  0  0  0
    4.5688  -10.1291   29.5758 C   0  0  0  0  0  0  0  0  0  0  0  0
    2.1008   -9.0410   29.1852 N   0  0  0  0  0  0  0  0  0  0  0  0
    3.4829  -10.5697   30.2091 N   0  0  0  0  0  0  0  0  0  0  0  0
   -0.3363   -6.1172   27.5628 C   0  0  0  0  0  0  0  0  0  0  0  0
    3.0331   -7.4400   27.6362 C   0  0  0  0  0  0  0  0  0  0  0  0
    5.4553   -8.5933   27.9644 C   0  0  0  0  0  0  0  0  0  0  0  0
   -2.3870  -12.8440   19.2512 C   0  0  0  0  0  0  0  0  0  0  0  0
    0.5331   -7.6964   16.2751 C   0  0  0  0  0  0  0  0  0  0  0  0
   -0.6740  -10.8737   18.0482 C   0  0  0  0  0  0  0  0  0  0  0  0
    5.6751  -10.5870   29.7637 O   0  0  0  0  0  0  0  0  0  0  0  0
    1.7612   -5.6483   26.7172 C   0  0  0  0  0  0  0  0  0  0  0  0
    0.2221   -9.8326   17.4055 C   0  0  0  0  0  0  0  0  0  0  0  0
    4.3850   -9.0730   28.6745 C   0  0  0  0  0  0  0  0  0  0  0  0
  1  7  4  0
  1 22  4  0
  2 17  4  0
  2 20  4  0
  2 28  4  0
  3  6  1  0
  3 19  1  0
  4 19  1  0
  4 26  1  0
  5 17  4  0
  5 18  4  0
  6 20  1  0
  6 26  1  0
  7 24  4  0
  8 15  4  0
  8 24  4  0
  9 14  4  0
  9 21  4  0
 10 12  4  0
 10 27  4  0
 11 12  4  0
 11 23  4  0
 13 23  4  0
 13 27  4  0
 14 20  4  0
 15 22  4  0
 16 18  4  0
 16 25  2  0
 16 28  4  0
 21 28  4  0
 24 27  1  0
M  END
$$$$

 Created by Python create_sdf_string function

 28 31  0  0  0  0  0  0  0  0999 V2000
   -1.0054  -13.0622   19.1198 C   0  0  0  0  0  0  0  0  0  0  0  0
    3.1478   -8.5360   28.5161 C   0  0  0  0  0  0  0  0  0  0  0  0
    0.5798   -7.1906   27.9330 C   0  0  0  0  0  0  0  0  0  0  0  0
    0.3978   -5.1561   26.6955 C   0  0  0  0  0  0  0  0  0  0  0  0
    2.3063  -10.0533   30.0125 C   0  0  0  0  0  0  0  0  0  0  0  0
    1.8591   -6.8254   27.4685 N   0  0  0  0  0  0  0  0  0  0  0  0
   -0.2167  -12.1055   18.5568 C   0  0  0  0  0  0  0  0  0  0  0  0
   -2.0661  -10.6994   18.1916 C   0  0  0  0  0  0  0  0  0  0  0  0
    5.2703   -7.5691   27.1123 C   0  0  0  0  0  0  0  0  0  0  0  0
    1.6204   -9.9887   17.2935 C   0  0  0  0  0  0  0  0  0  0  0  0
    1.8931   -7.9265   16.2047 C   0  0  0  0  0  0  0  0  0  0  0  0
    2.4396   -9.0801   16.7132 C   0  0  0  0  0  0  0  0  0  0  0  0
   -0.2575   -8.6234   16.8582 C   0  0  0  0  0  0  0  0  0  0  0  0
    4.0614   -7.0367   27.0106 N   0  0  0  0  0  0  0  0  0  0  0  0
   -2.9133  -11.6279   18.7578 C   0  0  0  0  0  0  0  0  0  0  0  0
    4.5688  -10.1291   29.5758 C   0  0  0  0  0  0  0  0  0  0  0  0
    2.1008   -9.0410   29.1852 N   0  0  0  0  0  0  0  0  0  0  0  0
    3.4829  -10.5697   30.2091 N   0  0  0  0  0  0  0  0  0  0  0  0
   -0.3363   -6.1172   27.5628 C   0  0  0  0  0  0  0  0  0  0  0  0
    3.0331   -7.4400   27.6362 C   0  0  0  0  0  0  0  0  0  0  0  0
    5.4553   -8.5933   27.9644 C   0  0  0  0  0  0  0  0  0  0  0  0
   -2.3870  -12.8440   19.2512 C   0  0  0  0  0  0  0  0  0  0  0  0
    0.5331   -7.6964   16.2751 C   0  0  0  0  0  0  0  0  0  0  0  0
   -0.6740  -10.8737   18.0482 C   0  0  0  0  0  0  0  0  0  0  0  0
    5.6751  -10.5870   29.7637 O   0  0  0  0  0  0  0  0  0  0  0  0
    1.7612   -5.6483   26.7172 C   0  0  0  0  0  0  0  0  0  0  0  0
    0.2221   -9.8326   17.4055 C   0  0  0  0  0  0  0  0  0  0  0  0
    4.3850   -9.0730   28.6745 C   0  0  0  0  0  0  0  0  0  0  0  0
  1  7  4  0
  1 22  4  0
  2 17  4  0
  2 20  4  0
  2 28  4  0
  3  6  1  0
  3 19  1  0
  4 19  1  0
  4 26  1  0
  5 17  4  0
  5 18  4  0
  6 20  1  0
  6 26  1  0
  7 24  4  0
  8 15  4  0
  8 24  4  0
  9 14  4  0
  9 21  4  0
 10 12  4  0
 10 27  4  0
 11 12  4  0
 11 23  4  0
 13 23  4  0
 13 27  4  0
 14 20  4  0
 15 22  4  0
 16 18  4  0
 16 25  2  0
 16 28  4  0
 21 28  4  0
 24 27  1  0
M  END
$$$$

 Created by Python create_sdf_string function

 28 31  0  0  0  0  0  0  0  0999 V2000
   -1.0054  -13.0622   19.1198 C   0  0  0  0  0  0  0  0  0  0  0  0
    3.1478   -8.5360   28.5161 C   0  0  0  0  0  0  0  0  0  0  0  0
    0.5798   -7.1906   27.9330 C   0  0  0  0  0  0  0  0  0  0  0  0
    0.3978   -5.1561   26.6955 C   0  0  0  0  0  0  0  0  0  0  0  0
    2.3063  -10.0533   30.0125 C   0  0  0  0  0  0  0  0  0  0  0  0
    1.8591   -6.8254   27.4685 N   0  0  0  0  0  0  0  0  0  0  0  0
   -0.2167  -12.1055   18.5568 C   0  0  0  0  0  0  0  0  0  0  0  0
   -2.0661  -10.6994   18.1916 C   0  0  0  0  0  0  0  0  0  0  0  0
    5.2703   -7.5691   27.1123 C   0  0  0  0  0  0  0  0  0  0  0  0
    1.6204   -9.9887   17.2935 C   0  0  0  0  0  0  0  0  0  0  0  0
    1.8931   -7.9265   16.2047 C   0  0  0  0  0  0  0  0  0  0  0  0
    2.4396   -9.0801   16.7132 C   0  0  0  0  0  0  0  0  0  0  0  0
   -0.2575   -8.6234   16.8582 C   0  0  0  0  0  0  0  0  0  0  0  0
    4.0614   -7.0367   27.0106 N   0  0  0  0  0  0  0  0  0  0  0  0
   -2.9133  -11.6279   18.7578 C   0  0  0  0  0  0  0  0  0  0  0  0
    4.5688  -10.1291   29.5758 C   0  0  0  0  0  0  0  0  0  0  0  0
    2.1008   -9.0410   29.1852 N   0  0  0  0  0  0  0  0  0  0  0  0
    3.4829  -10.5697   30.2091 N   0  0  0  0  0  0  0  0  0  0  0  0
   -0.3363   -6.1172   27.5628 C   0  0  0  0  0  0  0  0  0  0  0  0
    3.0331   -7.4400   27.6362 C   0  0  0  0  0  0  0  0  0  0  0  0
    5.4553   -8.5933   27.9644 C   0  0  0  0  0  0  0  0  0  0  0  0
   -2.3870  -12.8440   19.2512 C   0  0  0  0  0  0  0  0  0  0  0  0
    0.5331   -7.6964   16.2751 C   0  0  0  0  0  0  0  0  0  0  0  0
   -0.6740  -10.8737   18.0482 C   0  0  0  0  0  0  0  0  0  0  0  0
    5.6751  -10.5870   29.7637 O   0  0  0  0  0  0  0  0  0  0  0  0
    1.7612   -5.6483   26.7172 C   0  0  0  0  0  0  0  0  0  0  0  0
    0.2221   -9.8326   17.4055 C   0  0  0  0  0  0  0  0  0  0  0  0
    4.3850   -9.0730   28.6745 C   0  0  0  0  0  0  0  0  0  0  0  0
  1  7  4  0
  1 22  4  0
  2 17  4  0
  2 20  4  0
  2 28  4  0
  3  6  1  0
  3 19  1  0
  4 19  1  0
  4 26  1  0
  5 17  4  0
  5 18  4  0
  6 20  1  0
  6 26  1  0
  7 24  4  0
  8 15  4  0
  8 24  4  0
  9 14  4  0
  9 21  4  0
 10 12  4  0
 10 27  4  0
 11 12  4  0
 11 23  4  0
 13 23  4  0
 13 27  4  0
 14 20  4  0
 15 22  4  0
 16 18  4  0
 16 25  2  0
 16 28  4  0
 21 28  4  0
 24 27  1  0
M  END
$$$$

 Created by Python create_sdf_string function

 28 31  0  0  0  0  0  0  0  0999 V2000
   -1.0054  -13.0622   19.1198 C   0  0  0  0  0  0  0  0  0  0  0  0
    3.1478   -8.5360   28.5161 C   0  0  0  0  0  0  0  0  0  0  0  0
    0.5798   -7.1906   27.9330 C   0  0  0  0  0  0  0  0  0  0  0  0
    0.3978   -5.1561   26.6955 C   0  0  0  0  0  0  0  0  0  0  0  0
    2.3063  -10.0533   30.0125 C   0  0  0  0  0  0  0  0  0  0  0  0
    1.8591   -6.8254   27.4685 N   0  0  0  0  0  0  0  0  0  0  0  0
   -0.2167  -12.1055   18.5568 C   0  0  0  0  0  0  0  0  0  0  0  0
   -2.0661  -10.6994   18.1916 C   0  0  0  0  0  0  0  0  0  0  0  0
    5.2703   -7.5691   27.1123 C   0  0  0  0  0  0  0  0  0  0  0  0
    1.6204   -9.9887   17.2935 C   0  0  0  0  0  0  0  0  0  0  0  0
    1.8931   -7.9265   16.2047 C   0  0  0  0  0  0  0  0  0  0  0  0
    2.4396   -9.0801   16.7132 C   0  0  0  0  0  0  0  0  0  0  0  0
   -0.2575   -8.6234   16.8582 C   0  0  0  0  0  0  0  0  0  0  0  0
    4.0614   -7.0367   27.0106 N   0  0  0  0  0  0  0  0  0  0  0  0
   -2.9133  -11.6279   18.7578 C   0  0  0  0  0  0  0  0  0  0  0  0
    4.5688  -10.1291   29.5758 C   0  0  0  0  0  0  0  0  0  0  0  0
    2.1008   -9.0410   29.1852 N   0  0  0  0  0  0  0  0  0  0  0  0
    3.4829  -10.5697   30.2091 N   0  0  0  0  0  0  0  0  0  0  0  0
   -0.3363   -6.1172   27.5628 C   0  0  0  0  0  0  0  0  0  0  0  0
    3.0331   -7.4400   27.6362 C   0  0  0  0  0  0  0  0  0  0  0  0
    5.4553   -8.5933   27.9644 C   0  0  0  0  0  0  0  0  0  0  0  0
   -2.3870  -12.8440   19.2512 C   0  0  0  0  0  0  0  0  0  0  0  0
    0.5331   -7.6964   16.2751 C   0  0  0  0  0  0  0  0  0  0  0  0
   -0.6740  -10.8737   18.0482 C   0  0  0  0  0  0  0  0  0  0  0  0
    5.6751  -10.5870   29.7637 O   0  0  0  0  0  0  0  0  0  0  0  0
    1.7612   -5.6483   26.7172 C   0  0  0  0  0  0  0  0  0  0  0  0
    0.2221   -9.8326   17.4055 C   0  0  0  0  0  0  0  0  0  0  0  0
    4.3850   -9.0730   28.6745 C   0  0  0  0  0  0  0  0  0  0  0  0
  1  7  4  0
  1 22  4  0
  2 17  4  0
  2 20  4  0
  2 28  4  0
  3  6  1  0
  3 19  1  0
  4 19  1  0
  4 26  1  0
  5 17  4  0
  5 18  4  0
  6 20  1  0
  6 26  1  0
  7 24  4  0
  8 15  4  0
  8 24  4  0
  9 14  4  0
  9 21  4  0
 10 12  4  0
 10 27  4  0
 11 12  4  0
 11 23  4  0
 13 23  4  0
 13 27  4  0
 14 20  4  0
 15 22  4  0
 16 18  4  0
 16 25  2  0
 16 28  4  0
 21 28  4  0
 24 27  1  0
M  END
$$$$

 Created by Python create_sdf_string function

 28 31  0  0  0  0  0  0  0  0999 V2000
   -1.0054  -13.0622   19.1198 C   0  0  0  0  0  0  0  0  0  0  0  0
    3.1478   -8.5360   28.5161 C   0  0  0  0  0  0  0  0  0  0  0  0
    0.5798   -7.1906   27.9330 C   0  0  0  0  0  0  0  0  0  0  0  0
    0.3978   -5.1561   26.6955 C   0  0  0  0  0  0  0  0  0  0  0  0
    2.3063  -10.0533   30.0125 C   0  0  0  0  0  0  0  0  0  0  0  0
    1.8591   -6.8254   27.4685 N   0  0  0  0  0  0  0  0  0  0  0  0
   -0.2167  -12.1055   18.5568 C   0  0  0  0  0  0  0  0  0  0  0  0
   -2.0661  -10.6994   18.1916 C   0  0  0  0  0  0  0  0  0  0  0  0
    5.2703   -7.5691   27.1123 C   0  0  0  0  0  0  0  0  0  0  0  0
    1.6204   -9.9887   17.2935 C   0  0  0  0  0  0  0  0  0  0  0  0
    1.8931   -7.9265   16.2047 C   0  0  0  0  0  0  0  0  0  0  0  0
    2.4396   -9.0801   16.7132 C   0  0  0  0  0  0  0  0  0  0  0  0
   -0.2575   -8.6234   16.8582 C   0  0  0  0  0  0  0  0  0  0  0  0
    4.0614   -7.0367   27.0106 N   0  0  0  0  0  0  0  0  0  0  0  0
   -2.9133  -11.6279   18.7578 C   0  0  0  0  0  0  0  0  0  0  0  0
    4.5688  -10.1291   29.5758 C   0  0  0  0  0  0  0  0  0  0  0  0
    2.1008   -9.0410   29.1852 N   0  0  0  0  0  0  0  0  0  0  0  0
    3.4829  -10.5697   30.2091 N   0  0  0  0  0  0  0  0  0  0  0  0
   -0.3363   -6.1172   27.5628 C   0  0  0  0  0  0  0  0  0  0  0  0
    3.0331   -7.4400   27.6362 C   0  0  0  0  0  0  0  0  0  0  0  0
    5.4553   -8.5933   27.9644 C   0  0  0  0  0  0  0  0  0  0  0  0
   -2.3870  -12.8440   19.2512 C   0  0  0  0  0  0  0  0  0  0  0  0
    0.5331   -7.6964   16.2751 C   0  0  0  0  0  0  0  0  0  0  0  0
   -0.6740  -10.8737   18.0482 C   0  0  0  0  0  0  0  0  0  0  0  0
    5.6751  -10.5870   29.7637 O   0  0  0  0  0  0  0  0  0  0  0  0
    1.7612   -5.6483   26.7172 C   0  0  0  0  0  0  0  0  0  0  0  0
    0.2221   -9.8326   17.4055 C   0  0  0  0  0  0  0  0  0  0  0  0
    4.3850   -9.0730   28.6745 C   0  0  0  0  0  0  0  0  0  0  0  0
  1  7  4  0
  1 22  4  0
  2 17  4  0
  2 20  4  0
  2 28  4  0
  3  6  1  0
  3 19  1  0
  4 19  1  0
  4 26  1  0
  5 17  4  0
  5 18  4  0
  6 20  1  0
  6 26  1  0
  7 24  4  0
  8 15  4  0
  8 24  4  0
  9 14  4  0
  9 21  4  0
 10 12  4  0
 10 27  4  0
 11 12  4  0
 11 23  4  0
 13 23  4  0
 13 27  4  0
 14 20  4  0
 15 22  4  0
 16 18  4  0
 16 25  2  0
 16 28  4  0
 21 28  4  0
 24 27  1  0
M  END
$$$$

 Created by Python create_sdf_string function

 28 31  0  0  0  0  0  0  0  0999 V2000
   -1.0054  -13.0622   19.1198 C   0  0  0  0  0  0  0  0  0  0  0  0
    3.1478   -8.5360   28.5161 C   0  0  0  0  0  0  0  0  0  0  0  0
    0.5798   -7.1906   27.9330 C   0  0  0  0  0  0  0  0  0  0  0  0
    0.3978   -5.1561   26.6955 C   0  0  0  0  0  0  0  0  0  0  0  0
    2.3063  -10.0533   30.0125 C   0  0  0  0  0  0  0  0  0  0  0  0
    1.8591   -6.8254   27.4685 N   0  0  0  0  0  0  0  0  0  0  0  0
   -0.2167  -12.1055   18.5568 C   0  0  0  0  0  0  0  0  0  0  0  0
   -2.0661  -10.6994   18.1916 C   0  0  0  0  0  0  0  0  0  0  0  0
    5.2703   -7.5691   27.1123 C   0  0  0  0  0  0  0  0  0  0  0  0
    1.6204   -9.9887   17.2935 C   0  0  0  0  0  0  0  0  0  0  0  0
    1.8931   -7.9265   16.2047 C   0  0  0  0  0  0  0  0  0  0  0  0
    2.4396   -9.0801   16.7132 C   0  0  0  0  0  0  0  0  0  0  0  0
   -0.2575   -8.6234   16.8582 C   0  0  0  0  0  0  0  0  0  0  0  0
    4.0614   -7.0367   27.0106 N   0  0  0  0  0  0  0  0  0  0  0  0
   -2.9133  -11.6279   18.7578 C   0  0  0  0  0  0  0  0  0  0  0  0
    4.5688  -10.1291   29.5758 C   0  0  0  0  0  0  0  0  0  0  0  0
    2.1008   -9.0410   29.1852 N   0  0  0  0  0  0  0  0  0  0  0  0
    3.4829  -10.5697   30.2091 N   0  0  0  0  0  0  0  0  0  0  0  0
   -0.3363   -6.1172   27.5628 C   0  0  0  0  0  0  0  0  0  0  0  0
    3.0331   -7.4400   27.6362 C   0  0  0  0  0  0  0  0  0  0  0  0
    5.4553   -8.5933   27.9644 C   0  0  0  0  0  0  0  0  0  0  0  0
   -2.3870  -12.8440   19.2512 C   0  0  0  0  0  0  0  0  0  0  0  0
    0.5331   -7.6964   16.2751 C   0  0  0  0  0  0  0  0  0  0  0  0
   -0.6740  -10.8737   18.0482 C   0  0  0  0  0  0  0  0  0  0  0  0
    5.6751  -10.5870   29.7637 O   0  0  0  0  0  0  0  0  0  0  0  0
    1.7612   -5.6483   26.7172 C   0  0  0  0  0  0  0  0  0  0  0  0
    0.2221   -9.8326   17.4055 C   0  0  0  0  0  0  0  0  0  0  0  0
    4.3850   -9.0730   28.6745 C   0  0  0  0  0  0  0  0  0  0  0  0
  1  7  4  0
  1 22  4  0
  2 17  4  0
  2 20  4  0
  2 28  4  0
  3  6  1  0
  3 19  1  0
  4 19  1  0
  4 26  1  0
  5 17  4  0
  5 18  4  0
  6 20  1  0
  6 26  1  0
  7 24  4  0
  8 15  4  0
  8 24  4  0
  9 14  4  0
  9 21  4  0
 10 12  4  0
 10 27  4  0
 11 12  4  0
 11 23  4  0
 13 23  4  0
 13 27  4  0
 14 20  4  0
 15 22  4  0
 16 18  4  0
 16 25  2  0
 16 28  4  0
 21 28  4  0
 24 27  1  0
M  END
$$$$

 Created by Python create_sdf_string function

 28 31  0  0  0  0  0  0  0  0999 V2000
   -1.0054  -13.0622   19.1198 C   0  0  0  0  0  0  0  0  0  0  0  0
    3.1478   -8.5360   28.5161 C   0  0  0  0  0  0  0  0  0  0  0  0
    0.5798   -7.1906   27.9330 C   0  0  0  0  0  0  0  0  0  0  0  0
    0.3978   -5.1561   26.6955 C   0  0  0  0  0  0  0  0  0  0  0  0
    2.3063  -10.0533   30.0125 C   0  0  0  0  0  0  0  0  0  0  0  0
    1.8591   -6.8254   27.4685 N   0  0  0  0  0  0  0  0  0  0  0  0
   -0.2167  -12.1055   18.5568 C   0  0  0  0  0  0  0  0  0  0  0  0
   -2.0661  -10.6994   18.1916 C   0  0  0  0  0  0  0  0  0  0  0  0
    5.2703   -7.5691   27.1123 C   0  0  0  0  0  0  0  0  0  0  0  0
    1.6204   -9.9887   17.2935 C   0  0  0  0  0  0  0  0  0  0  0  0
    1.8931   -7.9265   16.2047 C   0  0  0  0  0  0  0  0  0  0  0  0
    2.4396   -9.0801   16.7132 C   0  0  0  0  0  0  0  0  0  0  0  0
   -0.2575   -8.6234   16.8582 C   0  0  0  0  0  0  0  0  0  0  0  0
    4.0614   -7.0367   27.0106 N   0  0  0  0  0  0  0  0  0  0  0  0
   -2.9133  -11.6279   18.7578 C   0  0  0  0  0  0  0  0  0  0  0  0
    4.5688  -10.1291   29.5758 C   0  0  0  0  0  0  0  0  0  0  0  0
    2.1008   -9.0410   29.1852 N   0  0  0  0  0  0  0  0  0  0  0  0
    3.4829  -10.5697   30.2091 N   0  0  0  0  0  0  0  0  0  0  0  0
   -0.3363   -6.1172   27.5628 C   0  0  0  0  0  0  0  0  0  0  0  0
    3.0331   -7.4400   27.6362 C   0  0  0  0  0  0  0  0  0  0  0  0
    5.4553   -8.5933   27.9644 C   0  0  0  0  0  0  0  0  0  0  0  0
   -2.3870  -12.8440   19.2512 C   0  0  0  0  0  0  0  0  0  0  0  0
    0.5331   -7.6964   16.2751 C   0  0  0  0  0  0  0  0  0  0  0  0
   -0.6740  -10.8737   18.0482 C   0  0  0  0  0  0  0  0  0  0  0  0
    5.6751  -10.5870   29.7637 O   0  0  0  0  0  0  0  0  0  0  0  0
    1.7612   -5.6483   26.7172 C   0  0  0  0  0  0  0  0  0  0  0  0
    0.2221   -9.8326   17.4055 C   0  0  0  0  0  0  0  0  0  0  0  0
    4.3850   -9.0730   28.6745 C   0  0  0  0  0  0  0  0  0  0  0  0
  1  7  4  0
  1 22  4  0
  2 17  4  0
  2 20  4  0
  2 28  4  0
  3  6  1  0
  3 19  1  0
  4 19  1  0
  4 26  1  0
  5 17  4  0
  5 18  4  0
  6 20  1  0
  6 26  1  0
  7 24  4  0
  8 15  4  0
  8 24  4  0
  9 14  4  0
  9 21  4  0
 10 12  4  0
 10 27  4  0
 11 12  4  0
 11 23  4  0
 13 23  4  0
 13 27  4  0
 14 20  4  0
 15 22  4  0
 16 18  4  0
 16 25  2  0
 16 28  4  0
 21 28  4  0
 24 27  1  0
M  END
$$$$

 Created by Python create_sdf_string function

 28 31  0  0  0  0  0  0  0  0999 V2000
   -1.0054  -13.0622   19.1198 C   0  0  0  0  0  0  0  0  0  0  0  0
    3.1478   -8.5360   28.5161 C   0  0  0  0  0  0  0  0  0  0  0  0
    0.5798   -7.1906   27.9330 C   0  0  0  0  0  0  0  0  0  0  0  0
    0.3978   -5.1561   26.6955 C   0  0  0  0  0  0  0  0  0  0  0  0
    2.3063  -10.0533   30.0125 C   0  0  0  0  0  0  0  0  0  0  0  0
    1.8591   -6.8254   27.4685 N   0  0  0  0  0  0  0  0  0  0  0  0
   -0.2167  -12.1055   18.5568 C   0  0  0  0  0  0  0  0  0  0  0  0
   -2.0661  -10.6994   18.1916 C   0  0  0  0  0  0  0  0  0  0  0  0
    5.2703   -7.5691   27.1123 C   0  0  0  0  0  0  0  0  0  0  0  0
    1.6204   -9.9887   17.2935 C   0  0  0  0  0  0  0  0  0  0  0  0
    1.8931   -7.9265   16.2047 C   0  0  0  0  0  0  0  0  0  0  0  0
    2.4396   -9.0801   16.7132 C   0  0  0  0  0  0  0  0  0  0  0  0
   -0.2575   -8.6234   16.8582 C   0  0  0  0  0  0  0  0  0  0  0  0
    4.0614   -7.0367   27.0106 N   0  0  0  0  0  0  0  0  0  0  0  0
   -2.9133  -11.6279   18.7578 C   0  0  0  0  0  0  0  0  0  0  0  0
    4.5688  -10.1291   29.5758 C   0  0  0  0  0  0  0  0  0  0  0  0
    2.1008   -9.0410   29.1852 N   0  0  0  0  0  0  0  0  0  0  0  0
    3.4829  -10.5697   30.2091 N   0  0  0  0  0  0  0  0  0  0  0  0
   -0.3363   -6.1172   27.5628 C   0  0  0  0  0  0  0  0  0  0  0  0
    3.0331   -7.4400   27.6362 C   0  0  0  0  0  0  0  0  0  0  0  0
    5.4553   -8.5933   27.9644 C   0  0  0  0  0  0  0  0  0  0  0  0
   -2.3870  -12.8440   19.2512 C   0  0  0  0  0  0  0  0  0  0  0  0
    0.5331   -7.6964   16.2751 C   0  0  0  0  0  0  0  0  0  0  0  0
   -0.6740  -10.8737   18.0482 C   0  0  0  0  0  0  0  0  0  0  0  0
    5.6751  -10.5870   29.7637 O   0  0  0  0  0  0  0  0  0  0  0  0
    1.7612   -5.6483   26.7172 C   0  0  0  0  0  0  0  0  0  0  0  0
    0.2221   -9.8326   17.4055 C   0  0  0  0  0  0  0  0  0  0  0  0
    4.3850   -9.0730   28.6745 C   0  0  0  0  0  0  0  0  0  0  0  0
  1  7  4  0
  1 22  4  0
  2 17  4  0
  2 20  4  0
  2 28  4  0
  3  6  1  0
  3 19  1  0
  4 19  1  0
  4 26  1  0
  5 17  4  0
  5 18  4  0
  6 20  1  0
  6 26  1  0
  7 24  4  0
  8 15  4  0
  8 24  4  0
  9 14  4  0
  9 21  4  0
 10 12  4  0
 10 27  4  0
 11 12  4  0
 11 23  4  0
 13 23  4  0
 13 27  4  0
 14 20  4  0
 15 22  4  0
 16 18  4  0
 16 25  2  0
 16 28  4  0
 21 28  4  0
 24 27  1  0
M  END
$$$$

 Created by Python create_sdf_string function

 28 31  0  0  0  0  0  0  0  0999 V2000
   -1.0054  -13.0622   19.1198 C   0  0  0  0  0  0  0  0  0  0  0  0
    3.1478   -8.5360   28.5161 C   0  0  0  0  0  0  0  0  0  0  0  0
    0.5798   -7.1906   27.9330 C   0  0  0  0  0  0  0  0  0  0  0  0
    0.3978   -5.1561   26.6955 C   0  0  0  0  0  0  0  0  0  0  0  0
    2.3063  -10.0533   30.0125 C   0  0  0  0  0  0  0  0  0  0  0  0
    1.8591   -6.8254   27.4685 N   0  0  0  0  0  0  0  0  0  0  0  0
   -0.2167  -12.1055   18.5568 C   0  0  0  0  0  0  0  0  0  0  0  0
   -2.0661  -10.6994   18.1916 C   0  0  0  0  0  0  0  0  0  0  0  0
    5.2703   -7.5691   27.1123 C   0  0  0  0  0  0  0  0  0  0  0  0
    1.6204   -9.9887   17.2935 C   0  0  0  0  0  0  0  0  0  0  0  0
    1.8931   -7.9265   16.2047 C   0  0  0  0  0  0  0  0  0  0  0  0
    2.4396   -9.0801   16.7132 C   0  0  0  0  0  0  0  0  0  0  0  0
   -0.2575   -8.6234   16.8582 C   0  0  0  0  0  0  0  0  0  0  0  0
    4.0614   -7.0367   27.0106 N   0  0  0  0  0  0  0  0  0  0  0  0
   -2.9133  -11.6279   18.7578 C   0  0  0  0  0  0  0  0  0  0  0  0
    4.5688  -10.1291   29.5758 C   0  0  0  0  0  0  0  0  0  0  0  0
    2.1008   -9.0410   29.1852 N   0  0  0  0  0  0  0  0  0  0  0  0
    3.4829  -10.5697   30.2091 N   0  0  0  0  0  0  0  0  0  0  0  0
   -0.3363   -6.1172   27.5628 C   0  0  0  0  0  0  0  0  0  0  0  0
    3.0331   -7.4400   27.6362 C   0  0  0  0  0  0  0  0  0  0  0  0
    5.4553   -8.5933   27.9644 C   0  0  0  0  0  0  0  0  0  0  0  0
   -2.3870  -12.8440   19.2512 C   0  0  0  0  0  0  0  0  0  0  0  0
    0.5331   -7.6964   16.2751 C   0  0  0  0  0  0  0  0  0  0  0  0
   -0.6740  -10.8737   18.0482 C   0  0  0  0  0  0  0  0  0  0  0  0
    5.6751  -10.5870   29.7637 O   0  0  0  0  0  0  0  0  0  0  0  0
    1.7612   -5.6483   26.7172 C   0  0  0  0  0  0  0  0  0  0  0  0
    0.2221   -9.8326   17.4055 C   0  0  0  0  0  0  0  0  0  0  0  0
    4.3850   -9.0730   28.6745 C   0  0  0  0  0  0  0  0  0  0  0  0
  1  7  4  0
  1 22  4  0
  2 17  4  0
  2 20  4  0
  2 28  4  0
  3  6  1  0
  3 19  1  0
  4 19  1  0
  4 26  1  0
  5 17  4  0
  5 18  4  0
  6 20  1  0
  6 26  1  0
  7 24  4  0
  8 15  4  0
  8 24  4  0
  9 14  4  0
  9 21  4  0
 10 12  4  0
 10 27  4  0
 11 12  4  0
 11 23  4  0
 13 23  4  0
 13 27  4  0
 14 20  4  0
 15 22  4  0
 16 18  4  0
 16 25  2  0
 16 28  4  0
 21 28  4  0
 24 27  1  0
M  END
$$$$

 Created by Python create_sdf_string function

 28 31  0  0  0  0  0  0  0  0999 V2000
   -1.0054  -13.0622   19.1198 C   0  0  0  0  0  0  0  0  0  0  0  0
    3.1478   -8.5360   28.5161 C   0  0  0  0  0  0  0  0  0  0  0  0
    0.5798   -7.1906   27.9330 C   0  0  0  0  0  0  0  0  0  0  0  0
    0.3978   -5.1561   26.6955 C   0  0  0  0  0  0  0  0  0  0  0  0
    2.3063  -10.0533   30.0125 C   0  0  0  0  0  0  0  0  0  0  0  0
    1.8591   -6.8254   27.4685 N   0  0  0  0  0  0  0  0  0  0  0  0
   -0.2167  -12.1055   18.5568 C   0  0  0  0  0  0  0  0  0  0  0  0
   -2.0661  -10.6994   18.1916 C   0  0  0  0  0  0  0  0  0  0  0  0
    5.2703   -7.5691   27.1123 C   0  0  0  0  0  0  0  0  0  0  0  0
    1.6204   -9.9887   17.2935 C   0  0  0  0  0  0  0  0  0  0  0  0
    1.8931   -7.9265   16.2047 C   0  0  0  0  0  0  0  0  0  0  0  0
    2.4396   -9.0801   16.7132 C   0  0  0  0  0  0  0  0  0  0  0  0
   -0.2575   -8.6234   16.8582 C   0  0  0  0  0  0  0  0  0  0  0  0
    4.0614   -7.0367   27.0106 N   0  0  0  0  0  0  0  0  0  0  0  0
   -2.9133  -11.6279   18.7578 C   0  0  0  0  0  0  0  0  0  0  0  0
    4.5688  -10.1291   29.5758 C   0  0  0  0  0  0  0  0  0  0  0  0
    2.1008   -9.0410   29.1852 N   0  0  0  0  0  0  0  0  0  0  0  0
    3.4829  -10.5697   30.2091 N   0  0  0  0  0  0  0  0  0  0  0  0
   -0.3363   -6.1172   27.5628 C   0  0  0  0  0  0  0  0  0  0  0  0
    3.0331   -7.4400   27.6362 C   0  0  0  0  0  0  0  0  0  0  0  0
    5.4553   -8.5933   27.9644 C   0  0  0  0  0  0  0  0  0  0  0  0
   -2.3870  -12.8440   19.2512 C   0  0  0  0  0  0  0  0  0  0  0  0
    0.5331   -7.6964   16.2751 C   0  0  0  0  0  0  0  0  0  0  0  0
   -0.6740  -10.8737   18.0482 C   0  0  0  0  0  0  0  0  0  0  0  0
    5.6751  -10.5870   29.7637 O   0  0  0  0  0  0  0  0  0  0  0  0
    1.7612   -5.6483   26.7172 C   0  0  0  0  0  0  0  0  0  0  0  0
    0.2221   -9.8326   17.4055 C   0  0  0  0  0  0  0  0  0  0  0  0
    4.3850   -9.0730   28.6745 C   0  0  0  0  0  0  0  0  0  0  0  0
  1  7  4  0
  1 22  4  0
  2 17  4  0
  2 20  4  0
  2 28  4  0
  3  6  1  0
  3 19  1  0
  4 19  1  0
  4 26  1  0
  5 17  4  0
  5 18  4  0
  6 20  1  0
  6 26  1  0
  7 24  4  0
  8 15  4  0
  8 24  4  0
  9 14  4  0
  9 21  4  0
 10 12  4  0
 10 27  4  0
 11 12  4  0
 11 23  4  0
 13 23  4  0
 13 27  4  0
 14 20  4  0
 15 22  4  0
 16 18  4  0
 16 25  2  0
 16 28  4  0
 21 28  4  0
 24 27  1  0
M  END
$$$$

 Created by Python create_sdf_string function

 28 31  0  0  0  0  0  0  0  0999 V2000
   -1.0054  -13.0622   19.1198 C   0  0  0  0  0  0  0  0  0  0  0  0
    3.1478   -8.5360   28.5161 C   0  0  0  0  0  0  0  0  0  0  0  0
    0.5798   -7.1906   27.9330 C   0  0  0  0  0  0  0  0  0  0  0  0
    0.3978   -5.1561   26.6955 C   0  0  0  0  0  0  0  0  0  0  0  0
    2.3063  -10.0533   30.0125 C   0  0  0  0  0  0  0  0  0  0  0  0
    1.8591   -6.8254   27.4685 N   0  0  0  0  0  0  0  0  0  0  0  0
   -0.2167  -12.1055   18.5568 C   0  0  0  0  0  0  0  0  0  0  0  0
   -2.0661  -10.6994   18.1916 C   0  0  0  0  0  0  0  0  0  0  0  0
    5.2703   -7.5691   27.1123 C   0  0  0  0  0  0  0  0  0  0  0  0
    1.6204   -9.9887   17.2935 C   0  0  0  0  0  0  0  0  0  0  0  0
    1.8931   -7.9265   16.2047 C   0  0  0  0  0  0  0  0  0  0  0  0
    2.4396   -9.0801   16.7132 C   0  0  0  0  0  0  0  0  0  0  0  0
   -0.2575   -8.6234   16.8582 C   0  0  0  0  0  0  0  0  0  0  0  0
    4.0614   -7.0367   27.0106 N   0  0  0  0  0  0  0  0  0  0  0  0
   -2.9133  -11.6279   18.7578 C   0  0  0  0  0  0  0  0  0  0  0  0
    4.5688  -10.1291   29.5758 C   0  0  0  0  0  0  0  0  0  0  0  0
    2.1008   -9.0410   29.1852 N   0  0  0  0  0  0  0  0  0  0  0  0
    3.4829  -10.5697   30.2091 N   0  0  0  0  0  0  0  0  0  0  0  0
   -0.3363   -6.1172   27.5628 C   0  0  0  0  0  0  0  0  0  0  0  0
    3.0331   -7.4400   27.6362 C   0  0  0  0  0  0  0  0  0  0  0  0
    5.4553   -8.5933   27.9644 C   0  0  0  0  0  0  0  0  0  0  0  0
   -2.3870  -12.8440   19.2512 C   0  0  0  0  0  0  0  0  0  0  0  0
    0.5331   -7.6964   16.2751 C   0  0  0  0  0  0  0  0  0  0  0  0
   -0.6740  -10.8737   18.0482 C   0  0  0  0  0  0  0  0  0  0  0  0
    5.6751  -10.5870   29.7637 O   0  0  0  0  0  0  0  0  0  0  0  0
    1.7612   -5.6483   26.7172 C   0  0  0  0  0  0  0  0  0  0  0  0
    0.2221   -9.8326   17.4055 C   0  0  0  0  0  0  0  0  0  0  0  0
    4.3850   -9.0730   28.6745 C   0  0  0  0  0  0  0  0  0  0  0  0
  1  7  4  0
  1 22  4  0
  2 17  4  0
  2 20  4  0
  2 28  4  0
  3  6  1  0
  3 19  1  0
  4 19  1  0
  4 26  1  0
  5 17  4  0
  5 18  4  0
  6 20  1  0
  6 26  1  0
  7 24  4  0
  8 15  4  0
  8 24  4  0
  9 14  4  0
  9 21  4  0
 10 12  4  0
 10 27  4  0
 11 12  4  0
 11 23  4  0
 13 23  4  0
 13 27  4  0
 14 20  4  0
 15 22  4  0
 16 18  4  0
 16 25  2  0
 16 28  4  0
 21 28  4  0
 24 27  1  0
M  END
$$$$

 Created by Python create_sdf_string function

 28 31  0  0  0  0  0  0  0  0999 V2000
   -1.0054  -13.0622   19.1198 C   0  0  0  0  0  0  0  0  0  0  0  0
    3.1478   -8.5360   28.5161 C   0  0  0  0  0  0  0  0  0  0  0  0
    0.5798   -7.1906   27.9330 C   0  0  0  0  0  0  0  0  0  0  0  0
    0.3978   -5.1561   26.6955 C   0  0  0  0  0  0  0  0  0  0  0  0
    2.3063  -10.0533   30.0125 C   0  0  0  0  0  0  0  0  0  0  0  0
    1.8591   -6.8254   27.4685 N   0  0  0  0  0  0  0  0  0  0  0  0
   -0.2167  -12.1055   18.5568 C   0  0  0  0  0  0  0  0  0  0  0  0
   -2.0661  -10.6994   18.1916 C   0  0  0  0  0  0  0  0  0  0  0  0
    5.2703   -7.5691   27.1123 C   0  0  0  0  0  0  0  0  0  0  0  0
    1.6204   -9.9887   17.2935 C   0  0  0  0  0  0  0  0  0  0  0  0
    1.8931   -7.9265   16.2047 C   0  0  0  0  0  0  0  0  0  0  0  0
    2.4396   -9.0801   16.7132 C   0  0  0  0  0  0  0  0  0  0  0  0
   -0.2575   -8.6234   16.8582 C   0  0  0  0  0  0  0  0  0  0  0  0
    4.0614   -7.0367   27.0106 N   0  0  0  0  0  0  0  0  0  0  0  0
   -2.9133  -11.6279   18.7578 C   0  0  0  0  0  0  0  0  0  0  0  0
    4.5688  -10.1291   29.5758 C   0  0  0  0  0  0  0  0  0  0  0  0
    2.1008   -9.0410   29.1852 N   0  0  0  0  0  0  0  0  0  0  0  0
    3.4829  -10.5697   30.2091 N   0  0  0  0  0  0  0  0  0  0  0  0
   -0.3363   -6.1172   27.5628 C   0  0  0  0  0  0  0  0  0  0  0  0
    3.0331   -7.4400   27.6362 C   0  0  0  0  0  0  0  0  0  0  0  0
    5.4553   -8.5933   27.9644 C   0  0  0  0  0  0  0  0  0  0  0  0
   -2.3870  -12.8440   19.2512 C   0  0  0  0  0  0  0  0  0  0  0  0
    0.5331   -7.6964   16.2751 C   0  0  0  0  0  0  0  0  0  0  0  0
   -0.6740  -10.8737   18.0482 C   0  0  0  0  0  0  0  0  0  0  0  0
    5.6751  -10.5870   29.7637 O   0  0  0  0  0  0  0  0  0  0  0  0
    1.7612   -5.6483   26.7172 C   0  0  0  0  0  0  0  0  0  0  0  0
    0.2221   -9.8326   17.4055 C   0  0  0  0  0  0  0  0  0  0  0  0
    4.3850   -9.0730   28.6745 C   0  0  0  0  0  0  0  0  0  0  0  0
  1  7  4  0
  1 22  4  0
  2 17  4  0
  2 20  4  0
  2 28  4  0
  3  6  1  0
  3 19  1  0
  4 19  1  0
  4 26  1  0
  5 17  4  0
  5 18  4  0
  6 20  1  0
  6 26  1  0
  7 24  4  0
  8 15  4  0
  8 24  4  0
  9 14  4  0
  9 21  4  0
 10 12  4  0
 10 27  4  0
 11 12  4  0
 11 23  4  0
 13 23  4  0
 13 27  4  0
 14 20  4  0
 15 22  4  0
 16 18  4  0
 16 25  2  0
 16 28  4  0
 21 28  4  0
 24 27  1  0
M  END
$$$$

 Created by Python create_sdf_string function

 28 31  0  0  0  0  0  0  0  0999 V2000
   -1.0054  -13.0622   19.1198 C   0  0  0  0  0  0  0  0  0  0  0  0
    3.1478   -8.5360   28.5161 C   0  0  0  0  0  0  0  0  0  0  0  0
    0.5798   -7.1906   27.9330 C   0  0  0  0  0  0  0  0  0  0  0  0
    0.3978   -5.1561   26.6955 C   0  0  0  0  0  0  0  0  0  0  0  0
    2.3063  -10.0533   30.0125 C   0  0  0  0  0  0  0  0  0  0  0  0
    1.8591   -6.8254   27.4685 N   0  0  0  0  0  0  0  0  0  0  0  0
   -0.2167  -12.1055   18.5568 C   0  0  0  0  0  0  0  0  0  0  0  0
   -2.0661  -10.6994   18.1916 C   0  0  0  0  0  0  0  0  0  0  0  0
    5.2703   -7.5691   27.1123 C   0  0  0  0  0  0  0  0  0  0  0  0
    1.6204   -9.9887   17.2935 C   0  0  0  0  0  0  0  0  0  0  0  0
    1.8931   -7.9265   16.2047 C   0  0  0  0  0  0  0  0  0  0  0  0
    2.4396   -9.0801   16.7132 C   0  0  0  0  0  0  0  0  0  0  0  0
   -0.2575   -8.6234   16.8582 C   0  0  0  0  0  0  0  0  0  0  0  0
    4.0614   -7.0367   27.0106 N   0  0  0  0  0  0  0  0  0  0  0  0
   -2.9133  -11.6279   18.7578 C   0  0  0  0  0  0  0  0  0  0  0  0
    4.5688  -10.1291   29.5758 C   0  0  0  0  0  0  0  0  0  0  0  0
    2.1008   -9.0410   29.1852 N   0  0  0  0  0  0  0  0  0  0  0  0
    3.4829  -10.5697   30.2091 N   0  0  0  0  0  0  0  0  0  0  0  0
   -0.3363   -6.1172   27.5628 C   0  0  0  0  0  0  0  0  0  0  0  0
    3.0331   -7.4400   27.6362 C   0  0  0  0  0  0  0  0  0  0  0  0
    5.4553   -8.5933   27.9644 C   0  0  0  0  0  0  0  0  0  0  0  0
   -2.3870  -12.8440   19.2512 C   0  0  0  0  0  0  0  0  0  0  0  0
    0.5331   -7.6964   16.2751 C   0  0  0  0  0  0  0  0  0  0  0  0
   -0.6740  -10.8737   18.0482 C   0  0  0  0  0  0  0  0  0  0  0  0
    5.6751  -10.5870   29.7637 O   0  0  0  0  0  0  0  0  0  0  0  0
    1.7612   -5.6483   26.7172 C   0  0  0  0  0  0  0  0  0  0  0  0
    0.2221   -9.8326   17.4055 C   0  0  0  0  0  0  0  0  0  0  0  0
    4.3850   -9.0730   28.6745 C   0  0  0  0  0  0  0  0  0  0  0  0
  1  7  4  0
  1 22  4  0
  2 17  4  0
  2 20  4  0
  2 28  4  0
  3  6  1  0
  3 19  1  0
  4 19  1  0
  4 26  1  0
  5 17  4  0
  5 18  4  0
  6 20  1  0
  6 26  1  0
  7 24  4  0
  8 15  4  0
  8 24  4  0
  9 14  4  0
  9 21  4  0
 10 12  4  0
 10 27  4  0
 11 12  4  0
 11 23  4  0
 13 23  4  0
 13 27  4  0
 14 20  4  0
 15 22  4  0
 16 18  4  0
 16 25  2  0
 16 28  4  0
 21 28  4  0
 24 27  1  0
M  END
$$$$

 Created by Python create_sdf_string function

 28 31  0  0  0  0  0  0  0  0999 V2000
   -1.0054  -13.0622   19.1198 C   0  0  0  0  0  0  0  0  0  0  0  0
    3.1478   -8.5360   28.5161 C   0  0  0  0  0  0  0  0  0  0  0  0
    0.5798   -7.1906   27.9330 C   0  0  0  0  0  0  0  0  0  0  0  0
    0.3978   -5.1561   26.6955 C   0  0  0  0  0  0  0  0  0  0  0  0
    2.3063  -10.0533   30.0125 C   0  0  0  0  0  0  0  0  0  0  0  0
    1.8591   -6.8254   27.4685 N   0  0  0  0  0  0  0  0  0  0  0  0
   -0.2167  -12.1055   18.5568 C   0  0  0  0  0  0  0  0  0  0  0  0
   -2.0661  -10.6994   18.1916 C   0  0  0  0  0  0  0  0  0  0  0  0
    5.2703   -7.5691   27.1123 C   0  0  0  0  0  0  0  0  0  0  0  0
    1.6204   -9.9887   17.2935 C   0  0  0  0  0  0  0  0  0  0  0  0
    1.8931   -7.9265   16.2047 C   0  0  0  0  0  0  0  0  0  0  0  0
    2.4396   -9.0801   16.7132 C   0  0  0  0  0  0  0  0  0  0  0  0
   -0.2575   -8.6234   16.8582 C   0  0  0  0  0  0  0  0  0  0  0  0
    4.0614   -7.0367   27.0106 N   0  0  0  0  0  0  0  0  0  0  0  0
   -2.9133  -11.6279   18.7578 C   0  0  0  0  0  0  0  0  0  0  0  0
    4.5688  -10.1291   29.5758 C   0  0  0  0  0  0  0  0  0  0  0  0
    2.1008   -9.0410   29.1852 N   0  0  0  0  0  0  0  0  0  0  0  0
    3.4829  -10.5697   30.2091 N   0  0  0  0  0  0  0  0  0  0  0  0
   -0.3363   -6.1172   27.5628 C   0  0  0  0  0  0  0  0  0  0  0  0
    3.0331   -7.4400   27.6362 C   0  0  0  0  0  0  0  0  0  0  0  0
    5.4553   -8.5933   27.9644 C   0  0  0  0  0  0  0  0  0  0  0  0
   -2.3870  -12.8440   19.2512 C   0  0  0  0  0  0  0  0  0  0  0  0
    0.5331   -7.6964   16.2751 C   0  0  0  0  0  0  0  0  0  0  0  0
   -0.6740  -10.8737   18.0482 C   0  0  0  0  0  0  0  0  0  0  0  0
    5.6751  -10.5870   29.7637 O   0  0  0  0  0  0  0  0  0  0  0  0
    1.7612   -5.6483   26.7172 C   0  0  0  0  0  0  0  0  0  0  0  0
    0.2221   -9.8326   17.4055 C   0  0  0  0  0  0  0  0  0  0  0  0
    4.3850   -9.0730   28.6745 C   0  0  0  0  0  0  0  0  0  0  0  0
  1  7  4  0
  1 22  4  0
  2 17  4  0
  2 20  4  0
  2 28  4  0
  3  6  1  0
  3 19  1  0
  4 19  1  0
  4 26  1  0
  5 17  4  0
  5 18  4  0
  6 20  1  0
  6 26  1  0
  7 24  4  0
  8 15  4  0
  8 24  4  0
  9 14  4  0
  9 21  4  0
 10 12  4  0
 10 27  4  0
 11 12  4  0
 11 23  4  0
 13 23  4  0
 13 27  4  0
 14 20  4  0
 15 22  4  0
 16 18  4  0
 16 25  2  0
 16 28  4  0
 21 28  4  0
 24 27  1  0
M  END
$$$$

 Created by Python create_sdf_string function

 28 31  0  0  0  0  0  0  0  0999 V2000
   -1.0054  -13.0622   19.1198 C   0  0  0  0  0  0  0  0  0  0  0  0
    3.1478   -8.5360   28.5161 C   0  0  0  0  0  0  0  0  0  0  0  0
    0.5798   -7.1906   27.9330 C   0  0  0  0  0  0  0  0  0  0  0  0
    0.3978   -5.1561   26.6955 C   0  0  0  0  0  0  0  0  0  0  0  0
    2.3063  -10.0533   30.0125 C   0  0  0  0  0  0  0  0  0  0  0  0
    1.8591   -6.8254   27.4685 N   0  0  0  0  0  0  0  0  0  0  0  0
   -0.2167  -12.1055   18.5568 C   0  0  0  0  0  0  0  0  0  0  0  0
   -2.0661  -10.6994   18.1916 C   0  0  0  0  0  0  0  0  0  0  0  0
    5.2703   -7.5691   27.1123 C   0  0  0  0  0  0  0  0  0  0  0  0
    1.6204   -9.9887   17.2935 C   0  0  0  0  0  0  0  0  0  0  0  0
    1.8931   -7.9265   16.2047 C   0  0  0  0  0  0  0  0  0  0  0  0
    2.4396   -9.0801   16.7132 C   0  0  0  0  0  0  0  0  0  0  0  0
   -0.2575   -8.6234   16.8582 C   0  0  0  0  0  0  0  0  0  0  0  0
    4.0614   -7.0367   27.0106 N   0  0  0  0  0  0  0  0  0  0  0  0
   -2.9133  -11.6279   18.7578 C   0  0  0  0  0  0  0  0  0  0  0  0
    4.5688  -10.1291   29.5758 C   0  0  0  0  0  0  0  0  0  0  0  0
    2.1008   -9.0410   29.1852 N   0  0  0  0  0  0  0  0  0  0  0  0
    3.4829  -10.5697   30.2091 N   0  0  0  0  0  0  0  0  0  0  0  0
   -0.3363   -6.1172   27.5628 C   0  0  0  0  0  0  0  0  0  0  0  0
    3.0331   -7.4400   27.6362 C   0  0  0  0  0  0  0  0  0  0  0  0
    5.4553   -8.5933   27.9644 C   0  0  0  0  0  0  0  0  0  0  0  0
   -2.3870  -12.8440   19.2512 C   0  0  0  0  0  0  0  0  0  0  0  0
    0.5331   -7.6964   16.2751 C   0  0  0  0  0  0  0  0  0  0  0  0
   -0.6740  -10.8737   18.0482 C   0  0  0  0  0  0  0  0  0  0  0  0
    5.6751  -10.5870   29.7637 O   0  0  0  0  0  0  0  0  0  0  0  0
    1.7612   -5.6483   26.7172 C   0  0  0  0  0  0  0  0  0  0  0  0
    0.2221   -9.8326   17.4055 C   0  0  0  0  0  0  0  0  0  0  0  0
    4.3850   -9.0730   28.6745 C   0  0  0  0  0  0  0  0  0  0  0  0
  1  7  4  0
  1 22  4  0
  2 17  4  0
  2 20  4  0
  2 28  4  0
  3  6  1  0
  3 19  1  0
  4 19  1  0
  4 26  1  0
  5 17  4  0
  5 18  4  0
  6 20  1  0
  6 26  1  0
  7 24  4  0
  8 15  4  0
  8 24  4  0
  9 14  4  0
  9 21  4  0
 10 12  4  0
 10 27  4  0
 11 12  4  0
 11 23  4  0
 13 23  4  0
 13 27  4  0
 14 20  4  0
 15 22  4  0
 16 18  4  0
 16 25  2  0
 16 28  4  0
 21 28  4  0
 24 27  1  0
M  END
$$$$

 Created by Python create_sdf_string function

 28 31  0  0  0  0  0  0  0  0999 V2000
   -1.0054  -13.0622   19.1198 C   0  0  0  0  0  0  0  0  0  0  0  0
    3.1478   -8.5360   28.5161 C   0  0  0  0  0  0  0  0  0  0  0  0
    0.5798   -7.1906   27.9330 C   0  0  0  0  0  0  0  0  0  0  0  0
    0.3978   -5.1561   26.6955 C   0  0  0  0  0  0  0  0  0  0  0  0
    2.3063  -10.0533   30.0125 C   0  0  0  0  0  0  0  0  0  0  0  0
    1.8591   -6.8254   27.4685 N   0  0  0  0  0  0  0  0  0  0  0  0
   -0.2167  -12.1055   18.5568 C   0  0  0  0  0  0  0  0  0  0  0  0
   -2.0661  -10.6994   18.1916 C   0  0  0  0  0  0  0  0  0  0  0  0
    5.2703   -7.5691   27.1123 C   0  0  0  0  0  0  0  0  0  0  0  0
    1.6204   -9.9887   17.2935 C   0  0  0  0  0  0  0  0  0  0  0  0
    1.8931   -7.9265   16.2047 C   0  0  0  0  0  0  0  0  0  0  0  0
    2.4396   -9.0801   16.7132 C   0  0  0  0  0  0  0  0  0  0  0  0
   -0.2575   -8.6234   16.8582 C   0  0  0  0  0  0  0  0  0  0  0  0
    4.0614   -7.0367   27.0106 N   0  0  0  0  0  0  0  0  0  0  0  0
   -2.9133  -11.6279   18.7578 C   0  0  0  0  0  0  0  0  0  0  0  0
    4.5688  -10.1291   29.5758 C   0  0  0  0  0  0  0  0  0  0  0  0
    2.1008   -9.0410   29.1852 N   0  0  0  0  0  0  0  0  0  0  0  0
    3.4829  -10.5697   30.2091 N   0  0  0  0  0  0  0  0  0  0  0  0
   -0.3363   -6.1172   27.5628 C   0  0  0  0  0  0  0  0  0  0  0  0
    3.0331   -7.4400   27.6362 C   0  0  0  0  0  0  0  0  0  0  0  0
    5.4553   -8.5933   27.9644 C   0  0  0  0  0  0  0  0  0  0  0  0
   -2.3870  -12.8440   19.2512 C   0  0  0  0  0  0  0  0  0  0  0  0
    0.5331   -7.6964   16.2751 C   0  0  0  0  0  0  0  0  0  0  0  0
   -0.6740  -10.8737   18.0482 C   0  0  0  0  0  0  0  0  0  0  0  0
    5.6751  -10.5870   29.7637 O   0  0  0  0  0  0  0  0  0  0  0  0
    1.7612   -5.6483   26.7172 C   0  0  0  0  0  0  0  0  0  0  0  0
    0.2221   -9.8326   17.4055 C   0  0  0  0  0  0  0  0  0  0  0  0
    4.3850   -9.0730   28.6745 C   0  0  0  0  0  0  0  0  0  0  0  0
  1  7  4  0
  1 22  4  0
  2 17  4  0
  2 20  4  0
  2 28  4  0
  3  6  1  0
  3 19  1  0
  4 19  1  0
  4 26  1  0
  5 17  4  0
  5 18  4  0
  6 20  1  0
  6 26  1  0
  7 24  4  0
  8 15  4  0
  8 24  4  0
  9 14  4  0
  9 21  4  0
 10 12  4  0
 10 27  4  0
 11 12  4  0
 11 23  4  0
 13 23  4  0
 13 27  4  0
 14 20  4  0
 15 22  4  0
 16 18  4  0
 16 25  2  0
 16 28  4  0
 21 28  4  0
 24 27  1  0
M  END
$$$$

 Created by Python create_sdf_string function

 28 31  0  0  0  0  0  0  0  0999 V2000
   -1.0054  -13.0622   19.1198 C   0  0  0  0  0  0  0  0  0  0  0  0
    3.1478   -8.5360   28.5161 C   0  0  0  0  0  0  0  0  0  0  0  0
    0.5798   -7.1906   27.9330 C   0  0  0  0  0  0  0  0  0  0  0  0
    0.3978   -5.1561   26.6955 C   0  0  0  0  0  0  0  0  0  0  0  0
    2.3063  -10.0533   30.0125 C   0  0  0  0  0  0  0  0  0  0  0  0
    1.8591   -6.8254   27.4685 N   0  0  0  0  0  0  0  0  0  0  0  0
   -0.2167  -12.1055   18.5568 C   0  0  0  0  0  0  0  0  0  0  0  0
   -2.0661  -10.6994   18.1916 C   0  0  0  0  0  0  0  0  0  0  0  0
    5.2703   -7.5691   27.1123 C   0  0  0  0  0  0  0  0  0  0  0  0
    1.6204   -9.9887   17.2935 C   0  0  0  0  0  0  0  0  0  0  0  0
    1.8931   -7.9265   16.2047 C   0  0  0  0  0  0  0  0  0  0  0  0
    2.4396   -9.0801   16.7132 C   0  0  0  0  0  0  0  0  0  0  0  0
   -0.2575   -8.6234   16.8582 C   0  0  0  0  0  0  0  0  0  0  0  0
    4.0614   -7.0367   27.0106 N   0  0  0  0  0  0  0  0  0  0  0  0
   -2.9133  -11.6279   18.7578 C   0  0  0  0  0  0  0  0  0  0  0  0
    4.5688  -10.1291   29.5758 C   0  0  0  0  0  0  0  0  0  0  0  0
    2.1008   -9.0410   29.1852 N   0  0  0  0  0  0  0  0  0  0  0  0
    3.4829  -10.5697   30.2091 N   0  0  0  0  0  0  0  0  0  0  0  0
   -0.3363   -6.1172   27.5628 C   0  0  0  0  0  0  0  0  0  0  0  0
    3.0331   -7.4400   27.6362 C   0  0  0  0  0  0  0  0  0  0  0  0
    5.4553   -8.5933   27.9644 C   0  0  0  0  0  0  0  0  0  0  0  0
   -2.3870  -12.8440   19.2512 C   0  0  0  0  0  0  0  0  0  0  0  0
    0.5331   -7.6964   16.2751 C   0  0  0  0  0  0  0  0  0  0  0  0
   -0.6740  -10.8737   18.0482 C   0  0  0  0  0  0  0  0  0  0  0  0
    5.6751  -10.5870   29.7637 O   0  0  0  0  0  0  0  0  0  0  0  0
    1.7612   -5.6483   26.7172 C   0  0  0  0  0  0  0  0  0  0  0  0
    0.2221   -9.8326   17.4055 C   0  0  0  0  0  0  0  0  0  0  0  0
    4.3850   -9.0730   28.6745 C   0  0  0  0  0  0  0  0  0  0  0  0
  1  7  4  0
  1 22  4  0
  2 17  4  0
  2 20  4  0
  2 28  4  0
  3  6  1  0
  3 19  1  0
  4 19  1  0
  4 26  1  0
  5 17  4  0
  5 18  4  0
  6 20  1  0
  6 26  1  0
  7 24  4  0
  8 15  4  0
  8 24  4  0
  9 14  4  0
  9 21  4  0
 10 12  4  0
 10 27  4  0
 11 12  4  0
 11 23  4  0
 13 23  4  0
 13 27  4  0
 14 20  4  0
 15 22  4  0
 16 18  4  0
 16 25  2  0
 16 28  4  0
 21 28  4  0
 24 27  1  0
M  END
$$$$

 Created by Python create_sdf_string function

 28 31  0  0  0  0  0  0  0  0999 V2000
   -1.0054  -13.0622   19.1198 C   0  0  0  0  0  0  0  0  0  0  0  0
    3.1478   -8.5360   28.5161 C   0  0  0  0  0  0  0  0  0  0  0  0
    0.5798   -7.1906   27.9330 C   0  0  0  0  0  0  0  0  0  0  0  0
    0.3978   -5.1561   26.6955 C   0  0  0  0  0  0  0  0  0  0  0  0
    2.3063  -10.0533   30.0125 C   0  0  0  0  0  0  0  0  0  0  0  0
    1.8591   -6.8254   27.4685 N   0  0  0  0  0  0  0  0  0  0  0  0
   -0.2167  -12.1055   18.5568 C   0  0  0  0  0  0  0  0  0  0  0  0
   -2.0661  -10.6994   18.1916 C   0  0  0  0  0  0  0  0  0  0  0  0
    5.2703   -7.5691   27.1123 C   0  0  0  0  0  0  0  0  0  0  0  0
    1.6204   -9.9887   17.2935 C   0  0  0  0  0  0  0  0  0  0  0  0
    1.8931   -7.9265   16.2047 C   0  0  0  0  0  0  0  0  0  0  0  0
    2.4396   -9.0801   16.7132 C   0  0  0  0  0  0  0  0  0  0  0  0
   -0.2575   -8.6234   16.8582 C   0  0  0  0  0  0  0  0  0  0  0  0
    4.0614   -7.0367   27.0106 N   0  0  0  0  0  0  0  0  0  0  0  0
   -2.9133  -11.6279   18.7578 C   0  0  0  0  0  0  0  0  0  0  0  0
    4.5688  -10.1291   29.5758 C   0  0  0  0  0  0  0  0  0  0  0  0
    2.1008   -9.0410   29.1852 N   0  0  0  0  0  0  0  0  0  0  0  0
    3.4829  -10.5697   30.2091 N   0  0  0  0  0  0  0  0  0  0  0  0
   -0.3363   -6.1172   27.5628 C   0  0  0  0  0  0  0  0  0  0  0  0
    3.0331   -7.4400   27.6362 C   0  0  0  0  0  0  0  0  0  0  0  0
    5.4553   -8.5933   27.9644 C   0  0  0  0  0  0  0  0  0  0  0  0
   -2.3870  -12.8440   19.2512 C   0  0  0  0  0  0  0  0  0  0  0  0
    0.5331   -7.6964   16.2751 C   0  0  0  0  0  0  0  0  0  0  0  0
   -0.6740  -10.8737   18.0482 C   0  0  0  0  0  0  0  0  0  0  0  0
    5.6751  -10.5870   29.7637 O   0  0  0  0  0  0  0  0  0  0  0  0
    1.7612   -5.6483   26.7172 C   0  0  0  0  0  0  0  0  0  0  0  0
    0.2221   -9.8326   17.4055 C   0  0  0  0  0  0  0  0  0  0  0  0
    4.3850   -9.0730   28.6745 C   0  0  0  0  0  0  0  0  0  0  0  0
  1  7  4  0
  1 22  4  0
  2 17  4  0
  2 20  4  0
  2 28  4  0
  3  6  1  0
  3 19  1  0
  4 19  1  0
  4 26  1  0
  5 17  4  0
  5 18  4  0
  6 20  1  0
  6 26  1  0
  7 24  4  0
  8 15  4  0
  8 24  4  0
  9 14  4  0
  9 21  4  0
 10 12  4  0
 10 27  4  0
 11 12  4  0
 11 23  4  0
 13 23  4  0
 13 27  4  0
 14 20  4  0
 15 22  4  0
 16 18  4  0
 16 25  2  0
 16 28  4  0
 21 28  4  0
 24 27  1  0
M  END
$$$$

 Created by Python create_sdf_string function

 28 31  0  0  0  0  0  0  0  0999 V2000
   -1.0054  -13.0622   19.1198 C   0  0  0  0  0  0  0  0  0  0  0  0
    3.1478   -8.5360   28.5161 C   0  0  0  0  0  0  0  0  0  0  0  0
    0.5798   -7.1906   27.9330 C   0  0  0  0  0  0  0  0  0  0  0  0
    0.3978   -5.1561   26.6955 C   0  0  0  0  0  0  0  0  0  0  0  0
    2.3063  -10.0533   30.0125 C   0  0  0  0  0  0  0  0  0  0  0  0
    1.8591   -6.8254   27.4685 N   0  0  0  0  0  0  0  0  0  0  0  0
   -0.2167  -12.1055   18.5568 C   0  0  0  0  0  0  0  0  0  0  0  0
   -2.0661  -10.6994   18.1916 C   0  0  0  0  0  0  0  0  0  0  0  0
    5.2703   -7.5691   27.1123 C   0  0  0  0  0  0  0  0  0  0  0  0
    1.6204   -9.9887   17.2935 C   0  0  0  0  0  0  0  0  0  0  0  0
    1.8931   -7.9265   16.2047 C   0  0  0  0  0  0  0  0  0  0  0  0
    2.4396   -9.0801   16.7132 C   0  0  0  0  0  0  0  0  0  0  0  0
   -0.2575   -8.6234   16.8582 C   0  0  0  0  0  0  0  0  0  0  0  0
    4.0614   -7.0367   27.0106 N   0  0  0  0  0  0  0  0  0  0  0  0
   -2.9133  -11.6279   18.7578 C   0  0  0  0  0  0  0  0  0  0  0  0
    4.5688  -10.1291   29.5758 C   0  0  0  0  0  0  0  0  0  0  0  0
    2.1008   -9.0410   29.1852 N   0  0  0  0  0  0  0  0  0  0  0  0
    3.4829  -10.5697   30.2091 N   0  0  0  0  0  0  0  0  0  0  0  0
   -0.3363   -6.1172   27.5628 C   0  0  0  0  0  0  0  0  0  0  0  0
    3.0331   -7.4400   27.6362 C   0  0  0  0  0  0  0  0  0  0  0  0
    5.4553   -8.5933   27.9644 C   0  0  0  0  0  0  0  0  0  0  0  0
   -2.3870  -12.8440   19.2512 C   0  0  0  0  0  0  0  0  0  0  0  0
    0.5331   -7.6964   16.2751 C   0  0  0  0  0  0  0  0  0  0  0  0
   -0.6740  -10.8737   18.0482 C   0  0  0  0  0  0  0  0  0  0  0  0
    5.6751  -10.5870   29.7637 O   0  0  0  0  0  0  0  0  0  0  0  0
    1.7612   -5.6483   26.7172 C   0  0  0  0  0  0  0  0  0  0  0  0
    0.2221   -9.8326   17.4055 C   0  0  0  0  0  0  0  0  0  0  0  0
    4.3850   -9.0730   28.6745 C   0  0  0  0  0  0  0  0  0  0  0  0
  1  7  4  0
  1 22  4  0
  2 17  4  0
  2 20  4  0
  2 28  4  0
  3  6  1  0
  3 19  1  0
  4 19  1  0
  4 26  1  0
  5 17  4  0
  5 18  4  0
  6 20  1  0
  6 26  1  0
  7 24  4  0
  8 15  4  0
  8 24  4  0
  9 14  4  0
  9 21  4  0
 10 12  4  0
 10 27  4  0
 11 12  4  0
 11 23  4  0
 13 23  4  0
 13 27  4  0
 14 20  4  0
 15 22  4  0
 16 18  4  0
 16 25  2  0
 16 28  4  0
 21 28  4  0
 24 27  1  0
M  END
$$$$

 Created by Python create_sdf_string function

 28 31  0  0  0  0  0  0  0  0999 V2000
   -1.0054  -13.0622   19.1198 C   0  0  0  0  0  0  0  0  0  0  0  0
    3.1478   -8.5360   28.5161 C   0  0  0  0  0  0  0  0  0  0  0  0
    0.5798   -7.1906   27.9330 C   0  0  0  0  0  0  0  0  0  0  0  0
    0.3978   -5.1561   26.6955 C   0  0  0  0  0  0  0  0  0  0  0  0
    2.3063  -10.0533   30.0125 C   0  0  0  0  0  0  0  0  0  0  0  0
    1.8591   -6.8254   27.4685 N   0  0  0  0  0  0  0  0  0  0  0  0
   -0.2167  -12.1055   18.5568 C   0  0  0  0  0  0  0  0  0  0  0  0
   -2.0661  -10.6994   18.1916 C   0  0  0  0  0  0  0  0  0  0  0  0
    5.2703   -7.5691   27.1123 C   0  0  0  0  0  0  0  0  0  0  0  0
    1.6204   -9.9887   17.2935 C   0  0  0  0  0  0  0  0  0  0  0  0
    1.8931   -7.9265   16.2047 C   0  0  0  0  0  0  0  0  0  0  0  0
    2.4396   -9.0801   16.7132 C   0  0  0  0  0  0  0  0  0  0  0  0
   -0.2575   -8.6234   16.8582 C   0  0  0  0  0  0  0  0  0  0  0  0
    4.0614   -7.0367   27.0106 N   0  0  0  0  0  0  0  0  0  0  0  0
   -2.9133  -11.6279   18.7578 C   0  0  0  0  0  0  0  0  0  0  0  0
    4.5688  -10.1291   29.5758 C   0  0  0  0  0  0  0  0  0  0  0  0
    2.1008   -9.0410   29.1852 N   0  0  0  0  0  0  0  0  0  0  0  0
    3.4829  -10.5697   30.2091 N   0  0  0  0  0  0  0  0  0  0  0  0
   -0.3363   -6.1172   27.5628 C   0  0  0  0  0  0  0  0  0  0  0  0
    3.0331   -7.4400   27.6362 C   0  0  0  0  0  0  0  0  0  0  0  0
    5.4553   -8.5933   27.9644 C   0  0  0  0  0  0  0  0  0  0  0  0
   -2.3870  -12.8440   19.2512 C   0  0  0  0  0  0  0  0  0  0  0  0
    0.5331   -7.6964   16.2751 C   0  0  0  0  0  0  0  0  0  0  0  0
   -0.6740  -10.8737   18.0482 C   0  0  0  0  0  0  0  0  0  0  0  0
    5.6751  -10.5870   29.7637 O   0  0  0  0  0  0  0  0  0  0  0  0
    1.7612   -5.6483   26.7172 C   0  0  0  0  0  0  0  0  0  0  0  0
    0.2221   -9.8326   17.4055 C   0  0  0  0  0  0  0  0  0  0  0  0
    4.3850   -9.0730   28.6745 C   0  0  0  0  0  0  0  0  0  0  0  0
  1  7  4  0
  1 22  4  0
  2 17  4  0
  2 20  4  0
  2 28  4  0
  3  6  1  0
  3 19  1  0
  4 19  1  0
  4 26  1  0
  5 17  4  0
  5 18  4  0
  6 20  1  0
  6 26  1  0
  7 24  4  0
  8 15  4  0
  8 24  4  0
  9 14  4  0
  9 21  4  0
 10 12  4  0
 10 27  4  0
 11 12  4  0
 11 23  4  0
 13 23  4  0
 13 27  4  0
 14 20  4  0
 15 22  4  0
 16 18  4  0
 16 25  2  0
 16 28  4  0
 21 28  4  0
 24 27  1  0
M  END
$$$$

 Created by Python create_sdf_string function

 28 31  0  0  0  0  0  0  0  0999 V2000
   -1.0054  -13.0622   19.1198 C   0  0  0  0  0  0  0  0  0  0  0  0
    3.1478   -8.5360   28.5161 C   0  0  0  0  0  0  0  0  0  0  0  0
    0.5798   -7.1906   27.9330 C   0  0  0  0  0  0  0  0  0  0  0  0
    0.3978   -5.1561   26.6955 C   0  0  0  0  0  0  0  0  0  0  0  0
    2.3063  -10.0533   30.0125 C   0  0  0  0  0  0  0  0  0  0  0  0
    1.8591   -6.8254   27.4685 N   0  0  0  0  0  0  0  0  0  0  0  0
   -0.2167  -12.1055   18.5568 C   0  0  0  0  0  0  0  0  0  0  0  0
   -2.0661  -10.6994   18.1916 C   0  0  0  0  0  0  0  0  0  0  0  0
    5.2703   -7.5691   27.1123 C   0  0  0  0  0  0  0  0  0  0  0  0
    1.6204   -9.9887   17.2935 C   0  0  0  0  0  0  0  0  0  0  0  0
    1.8931   -7.9265   16.2047 C   0  0  0  0  0  0  0  0  0  0  0  0
    2.4396   -9.0801   16.7132 C   0  0  0  0  0  0  0  0  0  0  0  0
   -0.2575   -8.6234   16.8582 C   0  0  0  0  0  0  0  0  0  0  0  0
    4.0614   -7.0367   27.0106 N   0  0  0  0  0  0  0  0  0  0  0  0
   -2.9133  -11.6279   18.7578 C   0  0  0  0  0  0  0  0  0  0  0  0
    4.5688  -10.1291   29.5758 C   0  0  0  0  0  0  0  0  0  0  0  0
    2.1008   -9.0410   29.1852 N   0  0  0  0  0  0  0  0  0  0  0  0
    3.4829  -10.5697   30.2091 N   0  0  0  0  0  0  0  0  0  0  0  0
   -0.3363   -6.1172   27.5628 C   0  0  0  0  0  0  0  0  0  0  0  0
    3.0331   -7.4400   27.6362 C   0  0  0  0  0  0  0  0  0  0  0  0
    5.4553   -8.5933   27.9644 C   0  0  0  0  0  0  0  0  0  0  0  0
   -2.3870  -12.8440   19.2512 C   0  0  0  0  0  0  0  0  0  0  0  0
    0.5331   -7.6964   16.2751 C   0  0  0  0  0  0  0  0  0  0  0  0
   -0.6740  -10.8737   18.0482 C   0  0  0  0  0  0  0  0  0  0  0  0
    5.6751  -10.5870   29.7637 O   0  0  0  0  0  0  0  0  0  0  0  0
    1.7612   -5.6483   26.7172 C   0  0  0  0  0  0  0  0  0  0  0  0
    0.2221   -9.8326   17.4055 C   0  0  0  0  0  0  0  0  0  0  0  0
    4.3850   -9.0730   28.6745 C   0  0  0  0  0  0  0  0  0  0  0  0
  1  7  4  0
  1 22  4  0
  2 17  4  0
  2 20  4  0
  2 28  4  0
  3  6  1  0
  3 19  1  0
  4 19  1  0
  4 26  1  0
  5 17  4  0
  5 18  4  0
  6 20  1  0
  6 26  1  0
  7 24  4  0
  8 15  4  0
  8 24  4  0
  9 14  4  0
  9 21  4  0
 10 12  4  0
 10 27  4  0
 11 12  4  0
 11 23  4  0
 13 23  4  0
 13 27  4  0
 14 20  4  0
 15 22  4  0
 16 18  4  0
 16 25  2  0
 16 28  4  0
 21 28  4  0
 24 27  1  0
M  END
$$$$

 Created by Python create_sdf_string function

 28 31  0  0  0  0  0  0  0  0999 V2000
   -1.0054  -13.0622   19.1198 C   0  0  0  0  0  0  0  0  0  0  0  0
    3.1478   -8.5360   28.5161 C   0  0  0  0  0  0  0  0  0  0  0  0
    0.5798   -7.1906   27.9330 C   0  0  0  0  0  0  0  0  0  0  0  0
    0.3978   -5.1561   26.6955 C   0  0  0  0  0  0  0  0  0  0  0  0
    2.3063  -10.0533   30.0125 C   0  0  0  0  0  0  0  0  0  0  0  0
    1.8591   -6.8254   27.4685 N   0  0  0  0  0  0  0  0  0  0  0  0
   -0.2167  -12.1055   18.5568 C   0  0  0  0  0  0  0  0  0  0  0  0
   -2.0661  -10.6994   18.1916 C   0  0  0  0  0  0  0  0  0  0  0  0
    5.2703   -7.5691   27.1123 C   0  0  0  0  0  0  0  0  0  0  0  0
    1.6204   -9.9887   17.2935 C   0  0  0  0  0  0  0  0  0  0  0  0
    1.8931   -7.9265   16.2047 C   0  0  0  0  0  0  0  0  0  0  0  0
    2.4396   -9.0801   16.7132 C   0  0  0  0  0  0  0  0  0  0  0  0
   -0.2575   -8.6234   16.8582 C   0  0  0  0  0  0  0  0  0  0  0  0
    4.0614   -7.0367   27.0106 N   0  0  0  0  0  0  0  0  0  0  0  0
   -2.9133  -11.6279   18.7578 C   0  0  0  0  0  0  0  0  0  0  0  0
    4.5688  -10.1291   29.5758 C   0  0  0  0  0  0  0  0  0  0  0  0
    2.1008   -9.0410   29.1852 N   0  0  0  0  0  0  0  0  0  0  0  0
    3.4829  -10.5697   30.2091 N   0  0  0  0  0  0  0  0  0  0  0  0
   -0.3363   -6.1172   27.5628 C   0  0  0  0  0  0  0  0  0  0  0  0
    3.0331   -7.4400   27.6362 C   0  0  0  0  0  0  0  0  0  0  0  0
    5.4553   -8.5933   27.9644 C   0  0  0  0  0  0  0  0  0  0  0  0
   -2.3870  -12.8440   19.2512 C   0  0  0  0  0  0  0  0  0  0  0  0
    0.5331   -7.6964   16.2751 C   0  0  0  0  0  0  0  0  0  0  0  0
   -0.6740  -10.8737   18.0482 C   0  0  0  0  0  0  0  0  0  0  0  0
    5.6751  -10.5870   29.7637 O   0  0  0  0  0  0  0  0  0  0  0  0
    1.7612   -5.6483   26.7172 C   0  0  0  0  0  0  0  0  0  0  0  0
    0.2221   -9.8326   17.4055 C   0  0  0  0  0  0  0  0  0  0  0  0
    4.3850   -9.0730   28.6745 C   0  0  0  0  0  0  0  0  0  0  0  0
  1  7  4  0
  1 22  4  0
  2 17  4  0
  2 20  4  0
  2 28  4  0
  3  6  1  0
  3 19  1  0
  4 19  1  0
  4 26  1  0
  5 17  4  0
  5 18  4  0
  6 20  1  0
  6 26  1  0
  7 24  4  0
  8 15  4  0
  8 24  4  0
  9 14  4  0
  9 21  4  0
 10 12  4  0
 10 27  4  0
 11 12  4  0
 11 23  4  0
 13 23  4  0
 13 27  4  0
 14 20  4  0
 15 22  4  0
 16 18  4  0
 16 25  2  0
 16 28  4  0
 21 28  4  0
 24 27  1  0
M  END
$$$$

 Created by Python create_sdf_string function

 28 31  0  0  0  0  0  0  0  0999 V2000
   -1.0054  -13.0622   19.1198 C   0  0  0  0  0  0  0  0  0  0  0  0
    3.1478   -8.5360   28.5161 C   0  0  0  0  0  0  0  0  0  0  0  0
    0.5798   -7.1906   27.9330 C   0  0  0  0  0  0  0  0  0  0  0  0
    0.3978   -5.1561   26.6955 C   0  0  0  0  0  0  0  0  0  0  0  0
    2.3063  -10.0533   30.0125 C   0  0  0  0  0  0  0  0  0  0  0  0
    1.8591   -6.8254   27.4685 N   0  0  0  0  0  0  0  0  0  0  0  0
   -0.2167  -12.1055   18.5568 C   0  0  0  0  0  0  0  0  0  0  0  0
   -2.0661  -10.6994   18.1916 C   0  0  0  0  0  0  0  0  0  0  0  0
    5.2703   -7.5691   27.1123 C   0  0  0  0  0  0  0  0  0  0  0  0
    1.6204   -9.9887   17.2935 C   0  0  0  0  0  0  0  0  0  0  0  0
    1.8931   -7.9265   16.2047 C   0  0  0  0  0  0  0  0  0  0  0  0
    2.4396   -9.0801   16.7132 C   0  0  0  0  0  0  0  0  0  0  0  0
   -0.2575   -8.6234   16.8582 C   0  0  0  0  0  0  0  0  0  0  0  0
    4.0614   -7.0367   27.0106 N   0  0  0  0  0  0  0  0  0  0  0  0
   -2.9133  -11.6279   18.7578 C   0  0  0  0  0  0  0  0  0  0  0  0
    4.5688  -10.1291   29.5758 C   0  0  0  0  0  0  0  0  0  0  0  0
    2.1008   -9.0410   29.1852 N   0  0  0  0  0  0  0  0  0  0  0  0
    3.4829  -10.5697   30.2091 N   0  0  0  0  0  0  0  0  0  0  0  0
   -0.3363   -6.1172   27.5628 C   0  0  0  0  0  0  0  0  0  0  0  0
    3.0331   -7.4400   27.6362 C   0  0  0  0  0  0  0  0  0  0  0  0
    5.4553   -8.5933   27.9644 C   0  0  0  0  0  0  0  0  0  0  0  0
   -2.3870  -12.8440   19.2512 C   0  0  0  0  0  0  0  0  0  0  0  0
    0.5331   -7.6964   16.2751 C   0  0  0  0  0  0  0  0  0  0  0  0
   -0.6740  -10.8737   18.0482 C   0  0  0  0  0  0  0  0  0  0  0  0
    5.6751  -10.5870   29.7637 O   0  0  0  0  0  0  0  0  0  0  0  0
    1.7612   -5.6483   26.7172 C   0  0  0  0  0  0  0  0  0  0  0  0
    0.2221   -9.8326   17.4055 C   0  0  0  0  0  0  0  0  0  0  0  0
    4.3850   -9.0730   28.6745 C   0  0  0  0  0  0  0  0  0  0  0  0
  1  7  4  0
  1 22  4  0
  2 17  4  0
  2 20  4  0
  2 28  4  0
  3  6  1  0
  3 19  1  0
  4 19  1  0
  4 26  1  0
  5 17  4  0
  5 18  4  0
  6 20  1  0
  6 26  1  0
  7 24  4  0
  8 15  4  0
  8 24  4  0
  9 14  4  0
  9 21  4  0
 10 12  4  0
 10 27  4  0
 11 12  4  0
 11 23  4  0
 13 23  4  0
 13 27  4  0
 14 20  4  0
 15 22  4  0
 16 18  4  0
 16 25  2  0
 16 28  4  0
 21 28  4  0
 24 27  1  0
M  END
$$$$

 Created by Python create_sdf_string function

 28 31  0  0  0  0  0  0  0  0999 V2000
   -1.0054  -13.0622   19.1198 C   0  0  0  0  0  0  0  0  0  0  0  0
    3.1478   -8.5360   28.5161 C   0  0  0  0  0  0  0  0  0  0  0  0
    0.5798   -7.1906   27.9330 C   0  0  0  0  0  0  0  0  0  0  0  0
    0.3978   -5.1561   26.6955 C   0  0  0  0  0  0  0  0  0  0  0  0
    2.3063  -10.0533   30.0125 C   0  0  0  0  0  0  0  0  0  0  0  0
    1.8591   -6.8254   27.4685 N   0  0  0  0  0  0  0  0  0  0  0  0
   -0.2167  -12.1055   18.5568 C   0  0  0  0  0  0  0  0  0  0  0  0
   -2.0661  -10.6994   18.1916 C   0  0  0  0  0  0  0  0  0  0  0  0
    5.2703   -7.5691   27.1123 C   0  0  0  0  0  0  0  0  0  0  0  0
    1.6204   -9.9887   17.2935 C   0  0  0  0  0  0  0  0  0  0  0  0
    1.8931   -7.9265   16.2047 C   0  0  0  0  0  0  0  0  0  0  0  0
    2.4396   -9.0801   16.7132 C   0  0  0  0  0  0  0  0  0  0  0  0
   -0.2575   -8.6234   16.8582 C   0  0  0  0  0  0  0  0  0  0  0  0
    4.0614   -7.0367   27.0106 N   0  0  0  0  0  0  0  0  0  0  0  0
   -2.9133  -11.6279   18.7578 C   0  0  0  0  0  0  0  0  0  0  0  0
    4.5688  -10.1291   29.5758 C   0  0  0  0  0  0  0  0  0  0  0  0
    2.1008   -9.0410   29.1852 N   0  0  0  0  0  0  0  0  0  0  0  0
    3.4829  -10.5697   30.2091 N   0  0  0  0  0  0  0  0  0  0  0  0
   -0.3363   -6.1172   27.5628 C   0  0  0  0  0  0  0  0  0  0  0  0
    3.0331   -7.4400   27.6362 C   0  0  0  0  0  0  0  0  0  0  0  0
    5.4553   -8.5933   27.9644 C   0  0  0  0  0  0  0  0  0  0  0  0
   -2.3870  -12.8440   19.2512 C   0  0  0  0  0  0  0  0  0  0  0  0
    0.5331   -7.6964   16.2751 C   0  0  0  0  0  0  0  0  0  0  0  0
   -0.6740  -10.8737   18.0482 C   0  0  0  0  0  0  0  0  0  0  0  0
    5.6751  -10.5870   29.7637 O   0  0  0  0  0  0  0  0  0  0  0  0
    1.7612   -5.6483   26.7172 C   0  0  0  0  0  0  0  0  0  0  0  0
    0.2221   -9.8326   17.4055 C   0  0  0  0  0  0  0  0  0  0  0  0
    4.3850   -9.0730   28.6745 C   0  0  0  0  0  0  0  0  0  0  0  0
  1  7  4  0
  1 22  4  0
  2 17  4  0
  2 20  4  0
  2 28  4  0
  3  6  1  0
  3 19  1  0
  4 19  1  0
  4 26  1  0
  5 17  4  0
  5 18  4  0
  6 20  1  0
  6 26  1  0
  7 24  4  0
  8 15  4  0
  8 24  4  0
  9 14  4  0
  9 21  4  0
 10 12  4  0
 10 27  4  0
 11 12  4  0
 11 23  4  0
 13 23  4  0
 13 27  4  0
 14 20  4  0
 15 22  4  0
 16 18  4  0
 16 25  2  0
 16 28  4  0
 21 28  4  0
 24 27  1  0
M  END
$$$$

 Created by Python create_sdf_string function

 28 31  0  0  0  0  0  0  0  0999 V2000
   -1.0054  -13.0622   19.1198 C   0  0  0  0  0  0  0  0  0  0  0  0
    3.1478   -8.5360   28.5161 C   0  0  0  0  0  0  0  0  0  0  0  0
    0.5798   -7.1906   27.9330 C   0  0  0  0  0  0  0  0  0  0  0  0
    0.3978   -5.1561   26.6955 C   0  0  0  0  0  0  0  0  0  0  0  0
    2.3063  -10.0533   30.0125 C   0  0  0  0  0  0  0  0  0  0  0  0
    1.8591   -6.8254   27.4685 N   0  0  0  0  0  0  0  0  0  0  0  0
   -0.2167  -12.1055   18.5568 C   0  0  0  0  0  0  0  0  0  0  0  0
   -2.0661  -10.6994   18.1916 C   0  0  0  0  0  0  0  0  0  0  0  0
    5.2703   -7.5691   27.1123 C   0  0  0  0  0  0  0  0  0  0  0  0
    1.6204   -9.9887   17.2935 C   0  0  0  0  0  0  0  0  0  0  0  0
    1.8931   -7.9265   16.2047 C   0  0  0  0  0  0  0  0  0  0  0  0
    2.4396   -9.0801   16.7132 C   0  0  0  0  0  0  0  0  0  0  0  0
   -0.2575   -8.6234   16.8582 C   0  0  0  0  0  0  0  0  0  0  0  0
    4.0614   -7.0367   27.0106 N   0  0  0  0  0  0  0  0  0  0  0  0
   -2.9133  -11.6279   18.7578 C   0  0  0  0  0  0  0  0  0  0  0  0
    4.5688  -10.1291   29.5758 C   0  0  0  0  0  0  0  0  0  0  0  0
    2.1008   -9.0410   29.1852 N   0  0  0  0  0  0  0  0  0  0  0  0
    3.4829  -10.5697   30.2091 N   0  0  0  0  0  0  0  0  0  0  0  0
   -0.3363   -6.1172   27.5628 C   0  0  0  0  0  0  0  0  0  0  0  0
    3.0331   -7.4400   27.6362 C   0  0  0  0  0  0  0  0  0  0  0  0
    5.4553   -8.5933   27.9644 C   0  0  0  0  0  0  0  0  0  0  0  0
   -2.3870  -12.8440   19.2512 C   0  0  0  0  0  0  0  0  0  0  0  0
    0.5331   -7.6964   16.2751 C   0  0  0  0  0  0  0  0  0  0  0  0
   -0.6740  -10.8737   18.0482 C   0  0  0  0  0  0  0  0  0  0  0  0
    5.6751  -10.5870   29.7637 O   0  0  0  0  0  0  0  0  0  0  0  0
    1.7612   -5.6483   26.7172 C   0  0  0  0  0  0  0  0  0  0  0  0
    0.2221   -9.8326   17.4055 C   0  0  0  0  0  0  0  0  0  0  0  0
    4.3850   -9.0730   28.6745 C   0  0  0  0  0  0  0  0  0  0  0  0
  1  7  4  0
  1 22  4  0
  2 17  4  0
  2 20  4  0
  2 28  4  0
  3  6  1  0
  3 19  1  0
  4 19  1  0
  4 26  1  0
  5 17  4  0
  5 18  4  0
  6 20  1  0
  6 26  1  0
  7 24  4  0
  8 15  4  0
  8 24  4  0
  9 14  4  0
  9 21  4  0
 10 12  4  0
 10 27  4  0
 11 12  4  0
 11 23  4  0
 13 23  4  0
 13 27  4  0
 14 20  4  0
 15 22  4  0
 16 18  4  0
 16 25  2  0
 16 28  4  0
 21 28  4  0
 24 27  1  0
M  END
$$$$

 Created by Python create_sdf_string function

 28 31  0  0  0  0  0  0  0  0999 V2000
   -1.0054  -13.0622   19.1198 C   0  0  0  0  0  0  0  0  0  0  0  0
    3.1478   -8.5360   28.5161 C   0  0  0  0  0  0  0  0  0  0  0  0
    0.5798   -7.1906   27.9330 C   0  0  0  0  0  0  0  0  0  0  0  0
    0.3978   -5.1561   26.6955 C   0  0  0  0  0  0  0  0  0  0  0  0
    2.3063  -10.0533   30.0125 C   0  0  0  0  0  0  0  0  0  0  0  0
    1.8591   -6.8254   27.4685 N   0  0  0  0  0  0  0  0  0  0  0  0
   -0.2167  -12.1055   18.5568 C   0  0  0  0  0  0  0  0  0  0  0  0
   -2.0661  -10.6994   18.1916 C   0  0  0  0  0  0  0  0  0  0  0  0
    5.2703   -7.5691   27.1123 C   0  0  0  0  0  0  0  0  0  0  0  0
    1.6204   -9.9887   17.2935 C   0  0  0  0  0  0  0  0  0  0  0  0
    1.8931   -7.9265   16.2047 C   0  0  0  0  0  0  0  0  0  0  0  0
    2.4396   -9.0801   16.7132 C   0  0  0  0  0  0  0  0  0  0  0  0
   -0.2575   -8.6234   16.8582 C   0  0  0  0  0  0  0  0  0  0  0  0
    4.0614   -7.0367   27.0106 N   0  0  0  0  0  0  0  0  0  0  0  0
   -2.9133  -11.6279   18.7578 C   0  0  0  0  0  0  0  0  0  0  0  0
    4.5688  -10.1291   29.5758 C   0  0  0  0  0  0  0  0  0  0  0  0
    2.1008   -9.0410   29.1852 N   0  0  0  0  0  0  0  0  0  0  0  0
    3.4829  -10.5697   30.2091 N   0  0  0  0  0  0  0  0  0  0  0  0
   -0.3363   -6.1172   27.5628 C   0  0  0  0  0  0  0  0  0  0  0  0
    3.0331   -7.4400   27.6362 C   0  0  0  0  0  0  0  0  0  0  0  0
    5.4553   -8.5933   27.9644 C   0  0  0  0  0  0  0  0  0  0  0  0
   -2.3870  -12.8440   19.2512 C   0  0  0  0  0  0  0  0  0  0  0  0
    0.5331   -7.6964   16.2751 C   0  0  0  0  0  0  0  0  0  0  0  0
   -0.6740  -10.8737   18.0482 C   0  0  0  0  0  0  0  0  0  0  0  0
    5.6751  -10.5870   29.7637 O   0  0  0  0  0  0  0  0  0  0  0  0
    1.7612   -5.6483   26.7172 C   0  0  0  0  0  0  0  0  0  0  0  0
    0.2221   -9.8326   17.4055 C   0  0  0  0  0  0  0  0  0  0  0  0
    4.3850   -9.0730   28.6745 C   0  0  0  0  0  0  0  0  0  0  0  0
  1  7  4  0
  1 22  4  0
  2 17  4  0
  2 20  4  0
  2 28  4  0
  3  6  1  0
  3 19  1  0
  4 19  1  0
  4 26  1  0
  5 17  4  0
  5 18  4  0
  6 20  1  0
  6 26  1  0
  7 24  4  0
  8 15  4  0
  8 24  4  0
  9 14  4  0
  9 21  4  0
 10 12  4  0
 10 27  4  0
 11 12  4  0
 11 23  4  0
 13 23  4  0
 13 27  4  0
 14 20  4  0
 15 22  4  0
 16 18  4  0
 16 25  2  0
 16 28  4  0
 21 28  4  0
 24 27  1  0
M  END
$$$$

 Created by Python create_sdf_string function

 28 31  0  0  0  0  0  0  0  0999 V2000
   -1.0054  -13.0622   19.1198 C   0  0  0  0  0  0  0  0  0  0  0  0
    3.1478   -8.5360   28.5161 C   0  0  0  0  0  0  0  0  0  0  0  0
    0.5798   -7.1906   27.9330 C   0  0  0  0  0  0  0  0  0  0  0  0
    0.3978   -5.1561   26.6955 C   0  0  0  0  0  0  0  0  0  0  0  0
    2.3063  -10.0533   30.0125 C   0  0  0  0  0  0  0  0  0  0  0  0
    1.8591   -6.8254   27.4685 N   0  0  0  0  0  0  0  0  0  0  0  0
   -0.2167  -12.1055   18.5568 C   0  0  0  0  0  0  0  0  0  0  0  0
   -2.0661  -10.6994   18.1916 C   0  0  0  0  0  0  0  0  0  0  0  0
    5.2703   -7.5691   27.1123 C   0  0  0  0  0  0  0  0  0  0  0  0
    1.6204   -9.9887   17.2935 C   0  0  0  0  0  0  0  0  0  0  0  0
    1.8931   -7.9265   16.2047 C   0  0  0  0  0  0  0  0  0  0  0  0
    2.4396   -9.0801   16.7132 C   0  0  0  0  0  0  0  0  0  0  0  0
   -0.2575   -8.6234   16.8582 C   0  0  0  0  0  0  0  0  0  0  0  0
    4.0614   -7.0367   27.0106 N   0  0  0  0  0  0  0  0  0  0  0  0
   -2.9133  -11.6279   18.7578 C   0  0  0  0  0  0  0  0  0  0  0  0
    4.5688  -10.1291   29.5758 C   0  0  0  0  0  0  0  0  0  0  0  0
    2.1008   -9.0410   29.1852 N   0  0  0  0  0  0  0  0  0  0  0  0
    3.4829  -10.5697   30.2091 N   0  0  0  0  0  0  0  0  0  0  0  0
   -0.3363   -6.1172   27.5628 C   0  0  0  0  0  0  0  0  0  0  0  0
    3.0331   -7.4400   27.6362 C   0  0  0  0  0  0  0  0  0  0  0  0
    5.4553   -8.5933   27.9644 C   0  0  0  0  0  0  0  0  0  0  0  0
   -2.3870  -12.8440   19.2512 C   0  0  0  0  0  0  0  0  0  0  0  0
    0.5331   -7.6964   16.2751 C   0  0  0  0  0  0  0  0  0  0  0  0
   -0.6740  -10.8737   18.0482 C   0  0  0  0  0  0  0  0  0  0  0  0
    5.6751  -10.5870   29.7637 O   0  0  0  0  0  0  0  0  0  0  0  0
    1.7612   -5.6483   26.7172 C   0  0  0  0  0  0  0  0  0  0  0  0
    0.2221   -9.8326   17.4055 C   0  0  0  0  0  0  0  0  0  0  0  0
    4.3850   -9.0730   28.6745 C   0  0  0  0  0  0  0  0  0  0  0  0
  1  7  4  0
  1 22  4  0
  2 17  4  0
  2 20  4  0
  2 28  4  0
  3  6  1  0
  3 19  1  0
  4 19  1  0
  4 26  1  0
  5 17  4  0
  5 18  4  0
  6 20  1  0
  6 26  1  0
  7 24  4  0
  8 15  4  0
  8 24  4  0
  9 14  4  0
  9 21  4  0
 10 12  4  0
 10 27  4  0
 11 12  4  0
 11 23  4  0
 13 23  4  0
 13 27  4  0
 14 20  4  0
 15 22  4  0
 16 18  4  0
 16 25  2  0
 16 28  4  0
 21 28  4  0
 24 27  1  0
M  END
$$$$

 Created by Python create_sdf_string function

 28 31  0  0  0  0  0  0  0  0999 V2000
   -1.0054  -13.0622   19.1198 C   0  0  0  0  0  0  0  0  0  0  0  0
    3.1478   -8.5360   28.5161 C   0  0  0  0  0  0  0  0  0  0  0  0
    0.5798   -7.1906   27.9330 C   0  0  0  0  0  0  0  0  0  0  0  0
    0.3978   -5.1561   26.6955 C   0  0  0  0  0  0  0  0  0  0  0  0
    2.3063  -10.0533   30.0125 C   0  0  0  0  0  0  0  0  0  0  0  0
    1.8591   -6.8254   27.4685 N   0  0  0  0  0  0  0  0  0  0  0  0
   -0.2167  -12.1055   18.5568 C   0  0  0  0  0  0  0  0  0  0  0  0
   -2.0661  -10.6994   18.1916 C   0  0  0  0  0  0  0  0  0  0  0  0
    5.2703   -7.5691   27.1123 C   0  0  0  0  0  0  0  0  0  0  0  0
    1.6204   -9.9887   17.2935 C   0  0  0  0  0  0  0  0  0  0  0  0
    1.8931   -7.9265   16.2047 C   0  0  0  0  0  0  0  0  0  0  0  0
    2.4396   -9.0801   16.7132 C   0  0  0  0  0  0  0  0  0  0  0  0
   -0.2575   -8.6234   16.8582 C   0  0  0  0  0  0  0  0  0  0  0  0
    4.0614   -7.0367   27.0106 N   0  0  0  0  0  0  0  0  0  0  0  0
   -2.9133  -11.6279   18.7578 C   0  0  0  0  0  0  0  0  0  0  0  0
    4.5688  -10.1291   29.5758 C   0  0  0  0  0  0  0  0  0  0  0  0
    2.1008   -9.0410   29.1852 N   0  0  0  0  0  0  0  0  0  0  0  0
    3.4829  -10.5697   30.2091 N   0  0  0  0  0  0  0  0  0  0  0  0
   -0.3363   -6.1172   27.5628 C   0  0  0  0  0  0  0  0  0  0  0  0
    3.0331   -7.4400   27.6362 C   0  0  0  0  0  0  0  0  0  0  0  0
    5.4553   -8.5933   27.9644 C   0  0  0  0  0  0  0  0  0  0  0  0
   -2.3870  -12.8440   19.2512 C   0  0  0  0  0  0  0  0  0  0  0  0
    0.5331   -7.6964   16.2751 C   0  0  0  0  0  0  0  0  0  0  0  0
   -0.6740  -10.8737   18.0482 C   0  0  0  0  0  0  0  0  0  0  0  0
    5.6751  -10.5870   29.7637 O   0  0  0  0  0  0  0  0  0  0  0  0
    1.7612   -5.6483   26.7172 C   0  0  0  0  0  0  0  0  0  0  0  0
    0.2221   -9.8326   17.4055 C   0  0  0  0  0  0  0  0  0  0  0  0
    4.3850   -9.0730   28.6745 C   0  0  0  0  0  0  0  0  0  0  0  0
  1  7  4  0
  1 22  4  0
  2 17  4  0
  2 20  4  0
  2 28  4  0
  3  6  1  0
  3 19  1  0
  4 19  1  0
  4 26  1  0
  5 17  4  0
  5 18  4  0
  6 20  1  0
  6 26  1  0
  7 24  4  0
  8 15  4  0
  8 24  4  0
  9 14  4  0
  9 21  4  0
 10 12  4  0
 10 27  4  0
 11 12  4  0
 11 23  4  0
 13 23  4  0
 13 27  4  0
 14 20  4  0
 15 22  4  0
 16 18  4  0
 16 25  2  0
 16 28  4  0
 21 28  4  0
 24 27  1  0
M  END
$$$$

 Created by Python create_sdf_string function

 28 31  0  0  0  0  0  0  0  0999 V2000
   -1.0054  -13.0622   19.1198 C   0  0  0  0  0  0  0  0  0  0  0  0
    3.1478   -8.5360   28.5161 C   0  0  0  0  0  0  0  0  0  0  0  0
    0.5798   -7.1906   27.9330 C   0  0  0  0  0  0  0  0  0  0  0  0
    0.3978   -5.1561   26.6955 C   0  0  0  0  0  0  0  0  0  0  0  0
    2.3063  -10.0533   30.0125 C   0  0  0  0  0  0  0  0  0  0  0  0
    1.8591   -6.8254   27.4685 N   0  0  0  0  0  0  0  0  0  0  0  0
   -0.2167  -12.1055   18.5568 C   0  0  0  0  0  0  0  0  0  0  0  0
   -2.0661  -10.6994   18.1916 C   0  0  0  0  0  0  0  0  0  0  0  0
    5.2703   -7.5691   27.1123 C   0  0  0  0  0  0  0  0  0  0  0  0
    1.6204   -9.9887   17.2935 C   0  0  0  0  0  0  0  0  0  0  0  0
    1.8931   -7.9265   16.2047 C   0  0  0  0  0  0  0  0  0  0  0  0
    2.4396   -9.0801   16.7132 C   0  0  0  0  0  0  0  0  0  0  0  0
   -0.2575   -8.6234   16.8582 C   0  0  0  0  0  0  0  0  0  0  0  0
    4.0614   -7.0367   27.0106 N   0  0  0  0  0  0  0  0  0  0  0  0
   -2.9133  -11.6279   18.7578 C   0  0  0  0  0  0  0  0  0  0  0  0
    4.5688  -10.1291   29.5758 C   0  0  0  0  0  0  0  0  0  0  0  0
    2.1008   -9.0410   29.1852 N   0  0  0  0  0  0  0  0  0  0  0  0
    3.4829  -10.5697   30.2091 N   0  0  0  0  0  0  0  0  0  0  0  0
   -0.3363   -6.1172   27.5628 C   0  0  0  0  0  0  0  0  0  0  0  0
    3.0331   -7.4400   27.6362 C   0  0  0  0  0  0  0  0  0  0  0  0
    5.4553   -8.5933   27.9644 C   0  0  0  0  0  0  0  0  0  0  0  0
   -2.3870  -12.8440   19.2512 C   0  0  0  0  0  0  0  0  0  0  0  0
    0.5331   -7.6964   16.2751 C   0  0  0  0  0  0  0  0  0  0  0  0
   -0.6740  -10.8737   18.0482 C   0  0  0  0  0  0  0  0  0  0  0  0
    5.6751  -10.5870   29.7637 O   0  0  0  0  0  0  0  0  0  0  0  0
    1.7612   -5.6483   26.7172 C   0  0  0  0  0  0  0  0  0  0  0  0
    0.2221   -9.8326   17.4055 C   0  0  0  0  0  0  0  0  0  0  0  0
    4.3850   -9.0730   28.6745 C   0  0  0  0  0  0  0  0  0  0  0  0
  1  7  4  0
  1 22  4  0
  2 17  4  0
  2 20  4  0
  2 28  4  0
  3  6  1  0
  3 19  1  0
  4 19  1  0
  4 26  1  0
  5 17  4  0
  5 18  4  0
  6 20  1  0
  6 26  1  0
  7 24  4  0
  8 15  4  0
  8 24  4  0
  9 14  4  0
  9 21  4  0
 10 12  4  0
 10 27  4  0
 11 12  4  0
 11 23  4  0
 13 23  4  0
 13 27  4  0
 14 20  4  0
 15 22  4  0
 16 18  4  0
 16 25  2  0
 16 28  4  0
 21 28  4  0
 24 27  1  0
M  END
$$$$

 Created by Python create_sdf_string function

 28 31  0  0  0  0  0  0  0  0999 V2000
   -1.0054  -13.0622   19.1198 C   0  0  0  0  0  0  0  0  0  0  0  0
    3.1478   -8.5360   28.5161 C   0  0  0  0  0  0  0  0  0  0  0  0
    0.5798   -7.1906   27.9330 C   0  0  0  0  0  0  0  0  0  0  0  0
    0.3978   -5.1561   26.6955 C   0  0  0  0  0  0  0  0  0  0  0  0
    2.3063  -10.0533   30.0125 C   0  0  0  0  0  0  0  0  0  0  0  0
    1.8591   -6.8254   27.4685 N   0  0  0  0  0  0  0  0  0  0  0  0
   -0.2167  -12.1055   18.5568 C   0  0  0  0  0  0  0  0  0  0  0  0
   -2.0661  -10.6994   18.1916 C   0  0  0  0  0  0  0  0  0  0  0  0
    5.2703   -7.5691   27.1123 C   0  0  0  0  0  0  0  0  0  0  0  0
    1.6204   -9.9887   17.2935 C   0  0  0  0  0  0  0  0  0  0  0  0
    1.8931   -7.9265   16.2047 C   0  0  0  0  0  0  0  0  0  0  0  0
    2.4396   -9.0801   16.7132 C   0  0  0  0  0  0  0  0  0  0  0  0
   -0.2575   -8.6234   16.8582 C   0  0  0  0  0  0  0  0  0  0  0  0
    4.0614   -7.0367   27.0106 N   0  0  0  0  0  0  0  0  0  0  0  0
   -2.9133  -11.6279   18.7578 C   0  0  0  0  0  0  0  0  0  0  0  0
    4.5688  -10.1291   29.5758 C   0  0  0  0  0  0  0  0  0  0  0  0
    2.1008   -9.0410   29.1852 N   0  0  0  0  0  0  0  0  0  0  0  0
    3.4829  -10.5697   30.2091 N   0  0  0  0  0  0  0  0  0  0  0  0
   -0.3363   -6.1172   27.5628 C   0  0  0  0  0  0  0  0  0  0  0  0
    3.0331   -7.4400   27.6362 C   0  0  0  0  0  0  0  0  0  0  0  0
    5.4553   -8.5933   27.9644 C   0  0  0  0  0  0  0  0  0  0  0  0
   -2.3870  -12.8440   19.2512 C   0  0  0  0  0  0  0  0  0  0  0  0
    0.5331   -7.6964   16.2751 C   0  0  0  0  0  0  0  0  0  0  0  0
   -0.6740  -10.8737   18.0482 C   0  0  0  0  0  0  0  0  0  0  0  0
    5.6751  -10.5870   29.7637 O   0  0  0  0  0  0  0  0  0  0  0  0
    1.7612   -5.6483   26.7172 C   0  0  0  0  0  0  0  0  0  0  0  0
    0.2221   -9.8326   17.4055 C   0  0  0  0  0  0  0  0  0  0  0  0
    4.3850   -9.0730   28.6745 C   0  0  0  0  0  0  0  0  0  0  0  0
  1  7  4  0
  1 22  4  0
  2 17  4  0
  2 20  4  0
  2 28  4  0
  3  6  1  0
  3 19  1  0
  4 19  1  0
  4 26  1  0
  5 17  4  0
  5 18  4  0
  6 20  1  0
  6 26  1  0
  7 24  4  0
  8 15  4  0
  8 24  4  0
  9 14  4  0
  9 21  4  0
 10 12  4  0
 10 27  4  0
 11 12  4  0
 11 23  4  0
 13 23  4  0
 13 27  4  0
 14 20  4  0
 15 22  4  0
 16 18  4  0
 16 25  2  0
 16 28  4  0
 21 28  4  0
 24 27  1  0
M  END
$$$$

 Created by Python create_sdf_string function

 28 31  0  0  0  0  0  0  0  0999 V2000
   -1.0054  -13.0622   19.1198 C   0  0  0  0  0  0  0  0  0  0  0  0
    3.1478   -8.5360   28.5161 C   0  0  0  0  0  0  0  0  0  0  0  0
    0.5798   -7.1906   27.9330 C   0  0  0  0  0  0  0  0  0  0  0  0
    0.3978   -5.1561   26.6955 C   0  0  0  0  0  0  0  0  0  0  0  0
    2.3063  -10.0533   30.0125 C   0  0  0  0  0  0  0  0  0  0  0  0
    1.8591   -6.8254   27.4685 N   0  0  0  0  0  0  0  0  0  0  0  0
   -0.2167  -12.1055   18.5568 C   0  0  0  0  0  0  0  0  0  0  0  0
   -2.0661  -10.6994   18.1916 C   0  0  0  0  0  0  0  0  0  0  0  0
    5.2703   -7.5691   27.1123 C   0  0  0  0  0  0  0  0  0  0  0  0
    1.6204   -9.9887   17.2935 C   0  0  0  0  0  0  0  0  0  0  0  0
    1.8931   -7.9265   16.2047 C   0  0  0  0  0  0  0  0  0  0  0  0
    2.4396   -9.0801   16.7132 C   0  0  0  0  0  0  0  0  0  0  0  0
   -0.2575   -8.6234   16.8582 C   0  0  0  0  0  0  0  0  0  0  0  0
    4.0614   -7.0367   27.0106 N   0  0  0  0  0  0  0  0  0  0  0  0
   -2.9133  -11.6279   18.7578 C   0  0  0  0  0  0  0  0  0  0  0  0
    4.5688  -10.1291   29.5758 C   0  0  0  0  0  0  0  0  0  0  0  0
    2.1008   -9.0410   29.1852 N   0  0  0  0  0  0  0  0  0  0  0  0
    3.4829  -10.5697   30.2091 N   0  0  0  0  0  0  0  0  0  0  0  0
   -0.3363   -6.1172   27.5628 C   0  0  0  0  0  0  0  0  0  0  0  0
    3.0331   -7.4400   27.6362 C   0  0  0  0  0  0  0  0  0  0  0  0
    5.4553   -8.5933   27.9644 C   0  0  0  0  0  0  0  0  0  0  0  0
   -2.3870  -12.8440   19.2512 C   0  0  0  0  0  0  0  0  0  0  0  0
    0.5331   -7.6964   16.2751 C   0  0  0  0  0  0  0  0  0  0  0  0
   -0.6740  -10.8737   18.0482 C   0  0  0  0  0  0  0  0  0  0  0  0
    5.6751  -10.5870   29.7637 O   0  0  0  0  0  0  0  0  0  0  0  0
    1.7612   -5.6483   26.7172 C   0  0  0  0  0  0  0  0  0  0  0  0
    0.2221   -9.8326   17.4055 C   0  0  0  0  0  0  0  0  0  0  0  0
    4.3850   -9.0730   28.6745 C   0  0  0  0  0  0  0  0  0  0  0  0
  1  7  4  0
  1 22  4  0
  2 17  4  0
  2 20  4  0
  2 28  4  0
  3  6  1  0
  3 19  1  0
  4 19  1  0
  4 26  1  0
  5 17  4  0
  5 18  4  0
  6 20  1  0
  6 26  1  0
  7 24  4  0
  8 15  4  0
  8 24  4  0
  9 14  4  0
  9 21  4  0
 10 12  4  0
 10 27  4  0
 11 12  4  0
 11 23  4  0
 13 23  4  0
 13 27  4  0
 14 20  4  0
 15 22  4  0
 16 18  4  0
 16 25  2  0
 16 28  4  0
 21 28  4  0
 24 27  1  0
M  END
$$$$

 Created by Python create_sdf_string function

 28 31  0  0  0  0  0  0  0  0999 V2000
   -1.0054  -13.0622   19.1198 C   0  0  0  0  0  0  0  0  0  0  0  0
    3.1478   -8.5360   28.5161 C   0  0  0  0  0  0  0  0  0  0  0  0
    0.5798   -7.1906   27.9330 C   0  0  0  0  0  0  0  0  0  0  0  0
    0.3978   -5.1561   26.6955 C   0  0  0  0  0  0  0  0  0  0  0  0
    2.3063  -10.0533   30.0125 C   0  0  0  0  0  0  0  0  0  0  0  0
    1.8591   -6.8254   27.4685 N   0  0  0  0  0  0  0  0  0  0  0  0
   -0.2167  -12.1055   18.5568 C   0  0  0  0  0  0  0  0  0  0  0  0
   -2.0661  -10.6994   18.1916 C   0  0  0  0  0  0  0  0  0  0  0  0
    5.2703   -7.5691   27.1123 C   0  0  0  0  0  0  0  0  0  0  0  0
    1.6204   -9.9887   17.2935 C   0  0  0  0  0  0  0  0  0  0  0  0
    1.8931   -7.9265   16.2047 C   0  0  0  0  0  0  0  0  0  0  0  0
    2.4396   -9.0801   16.7132 C   0  0  0  0  0  0  0  0  0  0  0  0
   -0.2575   -8.6234   16.8582 C   0  0  0  0  0  0  0  0  0  0  0  0
    4.0614   -7.0367   27.0106 N   0  0  0  0  0  0  0  0  0  0  0  0
   -2.9133  -11.6279   18.7578 C   0  0  0  0  0  0  0  0  0  0  0  0
    4.5688  -10.1291   29.5758 C   0  0  0  0  0  0  0  0  0  0  0  0
    2.1008   -9.0410   29.1852 N   0  0  0  0  0  0  0  0  0  0  0  0
    3.4829  -10.5697   30.2091 N   0  0  0  0  0  0  0  0  0  0  0  0
   -0.3363   -6.1172   27.5628 C   0  0  0  0  0  0  0  0  0  0  0  0
    3.0331   -7.4400   27.6362 C   0  0  0  0  0  0  0  0  0  0  0  0
    5.4553   -8.5933   27.9644 C   0  0  0  0  0  0  0  0  0  0  0  0
   -2.3870  -12.8440   19.2512 C   0  0  0  0  0  0  0  0  0  0  0  0
    0.5331   -7.6964   16.2751 C   0  0  0  0  0  0  0  0  0  0  0  0
   -0.6740  -10.8737   18.0482 C   0  0  0  0  0  0  0  0  0  0  0  0
    5.6751  -10.5870   29.7637 O   0  0  0  0  0  0  0  0  0  0  0  0
    1.7612   -5.6483   26.7172 C   0  0  0  0  0  0  0  0  0  0  0  0
    0.2221   -9.8326   17.4055 C   0  0  0  0  0  0  0  0  0  0  0  0
    4.3850   -9.0730   28.6745 C   0  0  0  0  0  0  0  0  0  0  0  0
  1  7  4  0
  1 22  4  0
  2 17  4  0
  2 20  4  0
  2 28  4  0
  3  6  1  0
  3 19  1  0
  4 19  1  0
  4 26  1  0
  5 17  4  0
  5 18  4  0
  6 20  1  0
  6 26  1  0
  7 24  4  0
  8 15  4  0
  8 24  4  0
  9 14  4  0
  9 21  4  0
 10 12  4  0
 10 27  4  0
 11 12  4  0
 11 23  4  0
 13 23  4  0
 13 27  4  0
 14 20  4  0
 15 22  4  0
 16 18  4  0
 16 25  2  0
 16 28  4  0
 21 28  4  0
 24 27  1  0
M  END
$$$$

 Created by Python create_sdf_string function

 28 31  0  0  0  0  0  0  0  0999 V2000
   -1.0054  -13.0622   19.1198 C   0  0  0  0  0  0  0  0  0  0  0  0
    3.1478   -8.5360   28.5161 C   0  0  0  0  0  0  0  0  0  0  0  0
    0.5798   -7.1906   27.9330 C   0  0  0  0  0  0  0  0  0  0  0  0
    0.3978   -5.1561   26.6955 C   0  0  0  0  0  0  0  0  0  0  0  0
    2.3063  -10.0533   30.0125 C   0  0  0  0  0  0  0  0  0  0  0  0
    1.8591   -6.8254   27.4685 N   0  0  0  0  0  0  0  0  0  0  0  0
   -0.2167  -12.1055   18.5568 C   0  0  0  0  0  0  0  0  0  0  0  0
   -2.0661  -10.6994   18.1916 C   0  0  0  0  0  0  0  0  0  0  0  0
    5.2703   -7.5691   27.1123 C   0  0  0  0  0  0  0  0  0  0  0  0
    1.6204   -9.9887   17.2935 C   0  0  0  0  0  0  0  0  0  0  0  0
    1.8931   -7.9265   16.2047 C   0  0  0  0  0  0  0  0  0  0  0  0
    2.4396   -9.0801   16.7132 C   0  0  0  0  0  0  0  0  0  0  0  0
   -0.2575   -8.6234   16.8582 C   0  0  0  0  0  0  0  0  0  0  0  0
    4.0614   -7.0367   27.0106 N   0  0  0  0  0  0  0  0  0  0  0  0
   -2.9133  -11.6279   18.7578 C   0  0  0  0  0  0  0  0  0  0  0  0
    4.5688  -10.1291   29.5758 C   0  0  0  0  0  0  0  0  0  0  0  0
    2.1008   -9.0410   29.1852 N   0  0  0  0  0  0  0  0  0  0  0  0
    3.4829  -10.5697   30.2091 N   0  0  0  0  0  0  0  0  0  0  0  0
   -0.3363   -6.1172   27.5628 C   0  0  0  0  0  0  0  0  0  0  0  0
    3.0331   -7.4400   27.6362 C   0  0  0  0  0  0  0  0  0  0  0  0
    5.4553   -8.5933   27.9644 C   0  0  0  0  0  0  0  0  0  0  0  0
   -2.3870  -12.8440   19.2512 C   0  0  0  0  0  0  0  0  0  0  0  0
    0.5331   -7.6964   16.2751 C   0  0  0  0  0  0  0  0  0  0  0  0
   -0.6740  -10.8737   18.0482 C   0  0  0  0  0  0  0  0  0  0  0  0
    5.6751  -10.5870   29.7637 O   0  0  0  0  0  0  0  0  0  0  0  0
    1.7612   -5.6483   26.7172 C   0  0  0  0  0  0  0  0  0  0  0  0
    0.2221   -9.8326   17.4055 C   0  0  0  0  0  0  0  0  0  0  0  0
    4.3850   -9.0730   28.6745 C   0  0  0  0  0  0  0  0  0  0  0  0
  1  7  4  0
  1 22  4  0
  2 17  4  0
  2 20  4  0
  2 28  4  0
  3  6  1  0
  3 19  1  0
  4 19  1  0
  4 26  1  0
  5 17  4  0
  5 18  4  0
  6 20  1  0
  6 26  1  0
  7 24  4  0
  8 15  4  0
  8 24  4  0
  9 14  4  0
  9 21  4  0
 10 12  4  0
 10 27  4  0
 11 12  4  0
 11 23  4  0
 13 23  4  0
 13 27  4  0
 14 20  4  0
 15 22  4  0
 16 18  4  0
 16 25  2  0
 16 28  4  0
 21 28  4  0
 24 27  1  0
M  END
$$$$

 Created by Python create_sdf_string function

 28 31  0  0  0  0  0  0  0  0999 V2000
   -1.0054  -13.0622   19.1198 C   0  0  0  0  0  0  0  0  0  0  0  0
    3.1478   -8.5360   28.5161 C   0  0  0  0  0  0  0  0  0  0  0  0
    0.5798   -7.1906   27.9330 C   0  0  0  0  0  0  0  0  0  0  0  0
    0.3978   -5.1561   26.6955 C   0  0  0  0  0  0  0  0  0  0  0  0
    2.3063  -10.0533   30.0125 C   0  0  0  0  0  0  0  0  0  0  0  0
    1.8591   -6.8254   27.4685 N   0  0  0  0  0  0  0  0  0  0  0  0
   -0.2167  -12.1055   18.5568 C   0  0  0  0  0  0  0  0  0  0  0  0
   -2.0661  -10.6994   18.1916 C   0  0  0  0  0  0  0  0  0  0  0  0
    5.2703   -7.5691   27.1123 C   0  0  0  0  0  0  0  0  0  0  0  0
    1.6204   -9.9887   17.2935 C   0  0  0  0  0  0  0  0  0  0  0  0
    1.8931   -7.9265   16.2047 C   0  0  0  0  0  0  0  0  0  0  0  0
    2.4396   -9.0801   16.7132 C   0  0  0  0  0  0  0  0  0  0  0  0
   -0.2575   -8.6234   16.8582 C   0  0  0  0  0  0  0  0  0  0  0  0
    4.0614   -7.0367   27.0106 N   0  0  0  0  0  0  0  0  0  0  0  0
   -2.9133  -11.6279   18.7578 C   0  0  0  0  0  0  0  0  0  0  0  0
    4.5688  -10.1291   29.5758 C   0  0  0  0  0  0  0  0  0  0  0  0
    2.1008   -9.0410   29.1852 N   0  0  0  0  0  0  0  0  0  0  0  0
    3.4829  -10.5697   30.2091 N   0  0  0  0  0  0  0  0  0  0  0  0
   -0.3363   -6.1172   27.5628 C   0  0  0  0  0  0  0  0  0  0  0  0
    3.0331   -7.4400   27.6362 C   0  0  0  0  0  0  0  0  0  0  0  0
    5.4553   -8.5933   27.9644 C   0  0  0  0  0  0  0  0  0  0  0  0
   -2.3870  -12.8440   19.2512 C   0  0  0  0  0  0  0  0  0  0  0  0
    0.5331   -7.6964   16.2751 C   0  0  0  0  0  0  0  0  0  0  0  0
   -0.6740  -10.8737   18.0482 C   0  0  0  0  0  0  0  0  0  0  0  0
    5.6751  -10.5870   29.7637 O   0  0  0  0  0  0  0  0  0  0  0  0
    1.7612   -5.6483   26.7172 C   0  0  0  0  0  0  0  0  0  0  0  0
    0.2221   -9.8326   17.4055 C   0  0  0  0  0  0  0  0  0  0  0  0
    4.3850   -9.0730   28.6745 C   0  0  0  0  0  0  0  0  0  0  0  0
  1  7  4  0
  1 22  4  0
  2 17  4  0
  2 20  4  0
  2 28  4  0
  3  6  1  0
  3 19  1  0
  4 19  1  0
  4 26  1  0
  5 17  4  0
  5 18  4  0
  6 20  1  0
  6 26  1  0
  7 24  4  0
  8 15  4  0
  8 24  4  0
  9 14  4  0
  9 21  4  0
 10 12  4  0
 10 27  4  0
 11 12  4  0
 11 23  4  0
 13 23  4  0
 13 27  4  0
 14 20  4  0
 15 22  4  0
 16 18  4  0
 16 25  2  0
 16 28  4  0
 21 28  4  0
 24 27  1  0
M  END
$$$$

 Created by Python create_sdf_string function

 28 31  0  0  0  0  0  0  0  0999 V2000
   -1.0054  -13.0622   19.1198 C   0  0  0  0  0  0  0  0  0  0  0  0
    3.1478   -8.5360   28.5161 C   0  0  0  0  0  0  0  0  0  0  0  0
    0.5798   -7.1906   27.9330 C   0  0  0  0  0  0  0  0  0  0  0  0
    0.3978   -5.1561   26.6955 C   0  0  0  0  0  0  0  0  0  0  0  0
    2.3063  -10.0533   30.0125 C   0  0  0  0  0  0  0  0  0  0  0  0
    1.8591   -6.8254   27.4685 N   0  0  0  0  0  0  0  0  0  0  0  0
   -0.2167  -12.1055   18.5568 C   0  0  0  0  0  0  0  0  0  0  0  0
   -2.0661  -10.6994   18.1916 C   0  0  0  0  0  0  0  0  0  0  0  0
    5.2703   -7.5691   27.1123 C   0  0  0  0  0  0  0  0  0  0  0  0
    1.6204   -9.9887   17.2935 C   0  0  0  0  0  0  0  0  0  0  0  0
    1.8931   -7.9265   16.2047 C   0  0  0  0  0  0  0  0  0  0  0  0
    2.4396   -9.0801   16.7132 C   0  0  0  0  0  0  0  0  0  0  0  0
   -0.2575   -8.6234   16.8582 C   0  0  0  0  0  0  0  0  0  0  0  0
    4.0614   -7.0367   27.0106 N   0  0  0  0  0  0  0  0  0  0  0  0
   -2.9133  -11.6279   18.7578 C   0  0  0  0  0  0  0  0  0  0  0  0
    4.5688  -10.1291   29.5758 C   0  0  0  0  0  0  0  0  0  0  0  0
    2.1008   -9.0410   29.1852 N   0  0  0  0  0  0  0  0  0  0  0  0
    3.4829  -10.5697   30.2091 N   0  0  0  0  0  0  0  0  0  0  0  0
   -0.3363   -6.1172   27.5628 C   0  0  0  0  0  0  0  0  0  0  0  0
    3.0331   -7.4400   27.6362 C   0  0  0  0  0  0  0  0  0  0  0  0
    5.4553   -8.5933   27.9644 C   0  0  0  0  0  0  0  0  0  0  0  0
   -2.3870  -12.8440   19.2512 C   0  0  0  0  0  0  0  0  0  0  0  0
    0.5331   -7.6964   16.2751 C   0  0  0  0  0  0  0  0  0  0  0  0
   -0.6740  -10.8737   18.0482 C   0  0  0  0  0  0  0  0  0  0  0  0
    5.6751  -10.5870   29.7637 O   0  0  0  0  0  0  0  0  0  0  0  0
    1.7612   -5.6483   26.7172 C   0  0  0  0  0  0  0  0  0  0  0  0
    0.2221   -9.8326   17.4055 C   0  0  0  0  0  0  0  0  0  0  0  0
    4.3850   -9.0730   28.6745 C   0  0  0  0  0  0  0  0  0  0  0  0
  1  7  4  0
  1 22  4  0
  2 17  4  0
  2 20  4  0
  2 28  4  0
  3  6  1  0
  3 19  1  0
  4 19  1  0
  4 26  1  0
  5 17  4  0
  5 18  4  0
  6 20  1  0
  6 26  1  0
  7 24  4  0
  8 15  4  0
  8 24  4  0
  9 14  4  0
  9 21  4  0
 10 12  4  0
 10 27  4  0
 11 12  4  0
 11 23  4  0
 13 23  4  0
 13 27  4  0
 14 20  4  0
 15 22  4  0
 16 18  4  0
 16 25  2  0
 16 28  4  0
 21 28  4  0
 24 27  1  0
M  END
$$$$

 Created by Python create_sdf_string function

 28 31  0  0  0  0  0  0  0  0999 V2000
   -1.0054  -13.0622   19.1198 C   0  0  0  0  0  0  0  0  0  0  0  0
    3.1478   -8.5360   28.5161 C   0  0  0  0  0  0  0  0  0  0  0  0
    0.5798   -7.1906   27.9330 C   0  0  0  0  0  0  0  0  0  0  0  0
    0.3978   -5.1561   26.6955 C   0  0  0  0  0  0  0  0  0  0  0  0
    2.3063  -10.0533   30.0125 C   0  0  0  0  0  0  0  0  0  0  0  0
    1.8591   -6.8254   27.4685 N   0  0  0  0  0  0  0  0  0  0  0  0
   -0.2167  -12.1055   18.5568 C   0  0  0  0  0  0  0  0  0  0  0  0
   -2.0661  -10.6994   18.1916 C   0  0  0  0  0  0  0  0  0  0  0  0
    5.2703   -7.5691   27.1123 C   0  0  0  0  0  0  0  0  0  0  0  0
    1.6204   -9.9887   17.2935 C   0  0  0  0  0  0  0  0  0  0  0  0
    1.8931   -7.9265   16.2047 C   0  0  0  0  0  0  0  0  0  0  0  0
    2.4396   -9.0801   16.7132 C   0  0  0  0  0  0  0  0  0  0  0  0
   -0.2575   -8.6234   16.8582 C   0  0  0  0  0  0  0  0  0  0  0  0
    4.0614   -7.0367   27.0106 N   0  0  0  0  0  0  0  0  0  0  0  0
   -2.9133  -11.6279   18.7578 C   0  0  0  0  0  0  0  0  0  0  0  0
    4.5688  -10.1291   29.5758 C   0  0  0  0  0  0  0  0  0  0  0  0
    2.1008   -9.0410   29.1852 N   0  0  0  0  0  0  0  0  0  0  0  0
    3.4829  -10.5697   30.2091 N   0  0  0  0  0  0  0  0  0  0  0  0
   -0.3363   -6.1172   27.5628 C   0  0  0  0  0  0  0  0  0  0  0  0
    3.0331   -7.4400   27.6362 C   0  0  0  0  0  0  0  0  0  0  0  0
    5.4553   -8.5933   27.9644 C   0  0  0  0  0  0  0  0  0  0  0  0
   -2.3870  -12.8440   19.2512 C   0  0  0  0  0  0  0  0  0  0  0  0
    0.5331   -7.6964   16.2751 C   0  0  0  0  0  0  0  0  0  0  0  0
   -0.6740  -10.8737   18.0482 C   0  0  0  0  0  0  0  0  0  0  0  0
    5.6751  -10.5870   29.7637 O   0  0  0  0  0  0  0  0  0  0  0  0
    1.7612   -5.6483   26.7172 C   0  0  0  0  0  0  0  0  0  0  0  0
    0.2221   -9.8326   17.4055 C   0  0  0  0  0  0  0  0  0  0  0  0
    4.3850   -9.0730   28.6745 C   0  0  0  0  0  0  0  0  0  0  0  0
  1  7  4  0
  1 22  4  0
  2 17  4  0
  2 20  4  0
  2 28  4  0
  3  6  1  0
  3 19  1  0
  4 19  1  0
  4 26  1  0
  5 17  4  0
  5 18  4  0
  6 20  1  0
  6 26  1  0
  7 24  4  0
  8 15  4  0
  8 24  4  0
  9 14  4  0
  9 21  4  0
 10 12  4  0
 10 27  4  0
 11 12  4  0
 11 23  4  0
 13 23  4  0
 13 27  4  0
 14 20  4  0
 15 22  4  0
 16 18  4  0
 16 25  2  0
 16 28  4  0
 21 28  4  0
 24 27  1  0
M  END
$$$$

 Created by Python create_sdf_string function

 28 31  0  0  0  0  0  0  0  0999 V2000
   -1.0054  -13.0622   19.1198 C   0  0  0  0  0  0  0  0  0  0  0  0
    3.1478   -8.5360   28.5161 C   0  0  0  0  0  0  0  0  0  0  0  0
    0.5798   -7.1906   27.9330 C   0  0  0  0  0  0  0  0  0  0  0  0
    0.3978   -5.1561   26.6955 C   0  0  0  0  0  0  0  0  0  0  0  0
    2.3063  -10.0533   30.0125 C   0  0  0  0  0  0  0  0  0  0  0  0
    1.8591   -6.8254   27.4685 N   0  0  0  0  0  0  0  0  0  0  0  0
   -0.2167  -12.1055   18.5568 C   0  0  0  0  0  0  0  0  0  0  0  0
   -2.0661  -10.6994   18.1916 C   0  0  0  0  0  0  0  0  0  0  0  0
    5.2703   -7.5691   27.1123 C   0  0  0  0  0  0  0  0  0  0  0  0
    1.6204   -9.9887   17.2935 C   0  0  0  0  0  0  0  0  0  0  0  0
    1.8931   -7.9265   16.2047 C   0  0  0  0  0  0  0  0  0  0  0  0
    2.4396   -9.0801   16.7132 C   0  0  0  0  0  0  0  0  0  0  0  0
   -0.2575   -8.6234   16.8582 C   0  0  0  0  0  0  0  0  0  0  0  0
    4.0614   -7.0367   27.0106 N   0  0  0  0  0  0  0  0  0  0  0  0
   -2.9133  -11.6279   18.7578 C   0  0  0  0  0  0  0  0  0  0  0  0
    4.5688  -10.1291   29.5758 C   0  0  0  0  0  0  0  0  0  0  0  0
    2.1008   -9.0410   29.1852 N   0  0  0  0  0  0  0  0  0  0  0  0
    3.4829  -10.5697   30.2091 N   0  0  0  0  0  0  0  0  0  0  0  0
   -0.3363   -6.1172   27.5628 C   0  0  0  0  0  0  0  0  0  0  0  0
    3.0331   -7.4400   27.6362 C   0  0  0  0  0  0  0  0  0  0  0  0
    5.4553   -8.5933   27.9644 C   0  0  0  0  0  0  0  0  0  0  0  0
   -2.3870  -12.8440   19.2512 C   0  0  0  0  0  0  0  0  0  0  0  0
    0.5331   -7.6964   16.2751 C   0  0  0  0  0  0  0  0  0  0  0  0
   -0.6740  -10.8737   18.0482 C   0  0  0  0  0  0  0  0  0  0  0  0
    5.6751  -10.5870   29.7637 O   0  0  0  0  0  0  0  0  0  0  0  0
    1.7612   -5.6483   26.7172 C   0  0  0  0  0  0  0  0  0  0  0  0
    0.2221   -9.8326   17.4055 C   0  0  0  0  0  0  0  0  0  0  0  0
    4.3850   -9.0730   28.6745 C   0  0  0  0  0  0  0  0  0  0  0  0
  1  7  4  0
  1 22  4  0
  2 17  4  0
  2 20  4  0
  2 28  4  0
  3  6  1  0
  3 19  1  0
  4 19  1  0
  4 26  1  0
  5 17  4  0
  5 18  4  0
  6 20  1  0
  6 26  1  0
  7 24  4  0
  8 15  4  0
  8 24  4  0
  9 14  4  0
  9 21  4  0
 10 12  4  0
 10 27  4  0
 11 12  4  0
 11 23  4  0
 13 23  4  0
 13 27  4  0
 14 20  4  0
 15 22  4  0
 16 18  4  0
 16 25  2  0
 16 28  4  0
 21 28  4  0
 24 27  1  0
M  END
$$$$

 Created by Python create_sdf_string function

 28 31  0  0  0  0  0  0  0  0999 V2000
   -1.0054  -13.0622   19.1198 C   0  0  0  0  0  0  0  0  0  0  0  0
    3.1478   -8.5360   28.5161 C   0  0  0  0  0  0  0  0  0  0  0  0
    0.5798   -7.1906   27.9330 C   0  0  0  0  0  0  0  0  0  0  0  0
    0.3978   -5.1561   26.6955 C   0  0  0  0  0  0  0  0  0  0  0  0
    2.3063  -10.0533   30.0125 C   0  0  0  0  0  0  0  0  0  0  0  0
    1.8591   -6.8254   27.4685 N   0  0  0  0  0  0  0  0  0  0  0  0
   -0.2167  -12.1055   18.5568 C   0  0  0  0  0  0  0  0  0  0  0  0
   -2.0661  -10.6994   18.1916 C   0  0  0  0  0  0  0  0  0  0  0  0
    5.2703   -7.5691   27.1123 C   0  0  0  0  0  0  0  0  0  0  0  0
    1.6204   -9.9887   17.2935 C   0  0  0  0  0  0  0  0  0  0  0  0
    1.8931   -7.9265   16.2047 C   0  0  0  0  0  0  0  0  0  0  0  0
    2.4396   -9.0801   16.7132 C   0  0  0  0  0  0  0  0  0  0  0  0
   -0.2575   -8.6234   16.8582 C   0  0  0  0  0  0  0  0  0  0  0  0
    4.0614   -7.0367   27.0106 N   0  0  0  0  0  0  0  0  0  0  0  0
   -2.9133  -11.6279   18.7578 C   0  0  0  0  0  0  0  0  0  0  0  0
    4.5688  -10.1291   29.5758 C   0  0  0  0  0  0  0  0  0  0  0  0
    2.1008   -9.0410   29.1852 N   0  0  0  0  0  0  0  0  0  0  0  0
    3.4829  -10.5697   30.2091 N   0  0  0  0  0  0  0  0  0  0  0  0
   -0.3363   -6.1172   27.5628 C   0  0  0  0  0  0  0  0  0  0  0  0
    3.0331   -7.4400   27.6362 C   0  0  0  0  0  0  0  0  0  0  0  0
    5.4553   -8.5933   27.9644 C   0  0  0  0  0  0  0  0  0  0  0  0
   -2.3870  -12.8440   19.2512 C   0  0  0  0  0  0  0  0  0  0  0  0
    0.5331   -7.6964   16.2751 C   0  0  0  0  0  0  0  0  0  0  0  0
   -0.6740  -10.8737   18.0482 C   0  0  0  0  0  0  0  0  0  0  0  0
    5.6751  -10.5870   29.7637 O   0  0  0  0  0  0  0  0  0  0  0  0
    1.7612   -5.6483   26.7172 C   0  0  0  0  0  0  0  0  0  0  0  0
    0.2221   -9.8326   17.4055 C   0  0  0  0  0  0  0  0  0  0  0  0
    4.3850   -9.0730   28.6745 C   0  0  0  0  0  0  0  0  0  0  0  0
  1  7  4  0
  1 22  4  0
  2 17  4  0
  2 20  4  0
  2 28  4  0
  3  6  1  0
  3 19  1  0
  4 19  1  0
  4 26  1  0
  5 17  4  0
  5 18  4  0
  6 20  1  0
  6 26  1  0
  7 24  4  0
  8 15  4  0
  8 24  4  0
  9 14  4  0
  9 21  4  0
 10 12  4  0
 10 27  4  0
 11 12  4  0
 11 23  4  0
 13 23  4  0
 13 27  4  0
 14 20  4  0
 15 22  4  0
 16 18  4  0
 16 25  2  0
 16 28  4  0
 21 28  4  0
 24 27  1  0
M  END
$$$$

 Created by Python create_sdf_string function

 28 31  0  0  0  0  0  0  0  0999 V2000
   -1.0054  -13.0622   19.1198 C   0  0  0  0  0  0  0  0  0  0  0  0
    3.1478   -8.5360   28.5161 C   0  0  0  0  0  0  0  0  0  0  0  0
    0.5798   -7.1906   27.9330 C   0  0  0  0  0  0  0  0  0  0  0  0
    0.3978   -5.1561   26.6955 C   0  0  0  0  0  0  0  0  0  0  0  0
    2.3063  -10.0533   30.0125 C   0  0  0  0  0  0  0  0  0  0  0  0
    1.8591   -6.8254   27.4685 N   0  0  0  0  0  0  0  0  0  0  0  0
   -0.2167  -12.1055   18.5568 C   0  0  0  0  0  0  0  0  0  0  0  0
   -2.0661  -10.6994   18.1916 C   0  0  0  0  0  0  0  0  0  0  0  0
    5.2703   -7.5691   27.1123 C   0  0  0  0  0  0  0  0  0  0  0  0
    1.6204   -9.9887   17.2935 C   0  0  0  0  0  0  0  0  0  0  0  0
    1.8931   -7.9265   16.2047 C   0  0  0  0  0  0  0  0  0  0  0  0
    2.4396   -9.0801   16.7132 C   0  0  0  0  0  0  0  0  0  0  0  0
   -0.2575   -8.6234   16.8582 C   0  0  0  0  0  0  0  0  0  0  0  0
    4.0614   -7.0367   27.0106 N   0  0  0  0  0  0  0  0  0  0  0  0
   -2.9133  -11.6279   18.7578 C   0  0  0  0  0  0  0  0  0  0  0  0
    4.5688  -10.1291   29.5758 C   0  0  0  0  0  0  0  0  0  0  0  0
    2.1008   -9.0410   29.1852 N   0  0  0  0  0  0  0  0  0  0  0  0
    3.4829  -10.5697   30.2091 N   0  0  0  0  0  0  0  0  0  0  0  0
   -0.3363   -6.1172   27.5628 C   0  0  0  0  0  0  0  0  0  0  0  0
    3.0331   -7.4400   27.6362 C   0  0  0  0  0  0  0  0  0  0  0  0
    5.4553   -8.5933   27.9644 C   0  0  0  0  0  0  0  0  0  0  0  0
   -2.3870  -12.8440   19.2512 C   0  0  0  0  0  0  0  0  0  0  0  0
    0.5331   -7.6964   16.2751 C   0  0  0  0  0  0  0  0  0  0  0  0
   -0.6740  -10.8737   18.0482 C   0  0  0  0  0  0  0  0  0  0  0  0
    5.6751  -10.5870   29.7637 O   0  0  0  0  0  0  0  0  0  0  0  0
    1.7612   -5.6483   26.7172 C   0  0  0  0  0  0  0  0  0  0  0  0
    0.2221   -9.8326   17.4055 C   0  0  0  0  0  0  0  0  0  0  0  0
    4.3850   -9.0730   28.6745 C   0  0  0  0  0  0  0  0  0  0  0  0
  1  7  4  0
  1 22  4  0
  2 17  4  0
  2 20  4  0
  2 28  4  0
  3  6  1  0
  3 19  1  0
  4 19  1  0
  4 26  1  0
  5 17  4  0
  5 18  4  0
  6 20  1  0
  6 26  1  0
  7 24  4  0
  8 15  4  0
  8 24  4  0
  9 14  4  0
  9 21  4  0
 10 12  4  0
 10 27  4  0
 11 12  4  0
 11 23  4  0
 13 23  4  0
 13 27  4  0
 14 20  4  0
 15 22  4  0
 16 18  4  0
 16 25  2  0
 16 28  4  0
 21 28  4  0
 24 27  1  0
M  END
$$$$

 Created by Python create_sdf_string function

 28 31  0  0  0  0  0  0  0  0999 V2000
   -1.0054  -13.0622   19.1198 C   0  0  0  0  0  0  0  0  0  0  0  0
    3.1478   -8.5360   28.5161 C   0  0  0  0  0  0  0  0  0  0  0  0
    0.5798   -7.1906   27.9330 C   0  0  0  0  0  0  0  0  0  0  0  0
    0.3978   -5.1561   26.6955 C   0  0  0  0  0  0  0  0  0  0  0  0
    2.3063  -10.0533   30.0125 C   0  0  0  0  0  0  0  0  0  0  0  0
    1.8591   -6.8254   27.4685 N   0  0  0  0  0  0  0  0  0  0  0  0
   -0.2167  -12.1055   18.5568 C   0  0  0  0  0  0  0  0  0  0  0  0
   -2.0661  -10.6994   18.1916 C   0  0  0  0  0  0  0  0  0  0  0  0
    5.2703   -7.5691   27.1123 C   0  0  0  0  0  0  0  0  0  0  0  0
    1.6204   -9.9887   17.2935 C   0  0  0  0  0  0  0  0  0  0  0  0
    1.8931   -7.9265   16.2047 C   0  0  0  0  0  0  0  0  0  0  0  0
    2.4396   -9.0801   16.7132 C   0  0  0  0  0  0  0  0  0  0  0  0
   -0.2575   -8.6234   16.8582 C   0  0  0  0  0  0  0  0  0  0  0  0
    4.0614   -7.0367   27.0106 N   0  0  0  0  0  0  0  0  0  0  0  0
   -2.9133  -11.6279   18.7578 C   0  0  0  0  0  0  0  0  0  0  0  0
    4.5688  -10.1291   29.5758 C   0  0  0  0  0  0  0  0  0  0  0  0
    2.1008   -9.0410   29.1852 N   0  0  0  0  0  0  0  0  0  0  0  0
    3.4829  -10.5697   30.2091 N   0  0  0  0  0  0  0  0  0  0  0  0
   -0.3363   -6.1172   27.5628 C   0  0  0  0  0  0  0  0  0  0  0  0
    3.0331   -7.4400   27.6362 C   0  0  0  0  0  0  0  0  0  0  0  0
    5.4553   -8.5933   27.9644 C   0  0  0  0  0  0  0  0  0  0  0  0
   -2.3870  -12.8440   19.2512 C   0  0  0  0  0  0  0  0  0  0  0  0
    0.5331   -7.6964   16.2751 C   0  0  0  0  0  0  0  0  0  0  0  0
   -0.6740  -10.8737   18.0482 C   0  0  0  0  0  0  0  0  0  0  0  0
    5.6751  -10.5870   29.7637 O   0  0  0  0  0  0  0  0  0  0  0  0
    1.7612   -5.6483   26.7172 C   0  0  0  0  0  0  0  0  0  0  0  0
    0.2221   -9.8326   17.4055 C   0  0  0  0  0  0  0  0  0  0  0  0
    4.3850   -9.0730   28.6745 C   0  0  0  0  0  0  0  0  0  0  0  0
  1  7  4  0
  1 22  4  0
  2 17  4  0
  2 20  4  0
  2 28  4  0
  3  6  1  0
  3 19  1  0
  4 19  1  0
  4 26  1  0
  5 17  4  0
  5 18  4  0
  6 20  1  0
  6 26  1  0
  7 24  4  0
  8 15  4  0
  8 24  4  0
  9 14  4  0
  9 21  4  0
 10 12  4  0
 10 27  4  0
 11 12  4  0
 11 23  4  0
 13 23  4  0
 13 27  4  0
 14 20  4  0
 15 22  4  0
 16 18  4  0
 16 25  2  0
 16 28  4  0
 21 28  4  0
 24 27  1  0
M  END
$$$$

 Created by Python create_sdf_string function

 28 31  0  0  0  0  0  0  0  0999 V2000
   -1.0054  -13.0622   19.1198 C   0  0  0  0  0  0  0  0  0  0  0  0
    3.1478   -8.5360   28.5161 C   0  0  0  0  0  0  0  0  0  0  0  0
    0.5798   -7.1906   27.9330 C   0  0  0  0  0  0  0  0  0  0  0  0
    0.3978   -5.1561   26.6955 C   0  0  0  0  0  0  0  0  0  0  0  0
    2.3063  -10.0533   30.0125 C   0  0  0  0  0  0  0  0  0  0  0  0
    1.8591   -6.8254   27.4685 N   0  0  0  0  0  0  0  0  0  0  0  0
   -0.2167  -12.1055   18.5568 C   0  0  0  0  0  0  0  0  0  0  0  0
   -2.0661  -10.6994   18.1916 C   0  0  0  0  0  0  0  0  0  0  0  0
    5.2703   -7.5691   27.1123 C   0  0  0  0  0  0  0  0  0  0  0  0
    1.6204   -9.9887   17.2935 C   0  0  0  0  0  0  0  0  0  0  0  0
    1.8931   -7.9265   16.2047 C   0  0  0  0  0  0  0  0  0  0  0  0
    2.4396   -9.0801   16.7132 C   0  0  0  0  0  0  0  0  0  0  0  0
   -0.2575   -8.6234   16.8582 C   0  0  0  0  0  0  0  0  0  0  0  0
    4.0614   -7.0367   27.0106 N   0  0  0  0  0  0  0  0  0  0  0  0
   -2.9133  -11.6279   18.7578 C   0  0  0  0  0  0  0  0  0  0  0  0
    4.5688  -10.1291   29.5758 C   0  0  0  0  0  0  0  0  0  0  0  0
    2.1008   -9.0410   29.1852 N   0  0  0  0  0  0  0  0  0  0  0  0
    3.4829  -10.5697   30.2091 N   0  0  0  0  0  0  0  0  0  0  0  0
   -0.3363   -6.1172   27.5628 C   0  0  0  0  0  0  0  0  0  0  0  0
    3.0331   -7.4400   27.6362 C   0  0  0  0  0  0  0  0  0  0  0  0
    5.4553   -8.5933   27.9644 C   0  0  0  0  0  0  0  0  0  0  0  0
   -2.3870  -12.8440   19.2512 C   0  0  0  0  0  0  0  0  0  0  0  0
    0.5331   -7.6964   16.2751 C   0  0  0  0  0  0  0  0  0  0  0  0
   -0.6740  -10.8737   18.0482 C   0  0  0  0  0  0  0  0  0  0  0  0
    5.6751  -10.5870   29.7637 O   0  0  0  0  0  0  0  0  0  0  0  0
    1.7612   -5.6483   26.7172 C   0  0  0  0  0  0  0  0  0  0  0  0
    0.2221   -9.8326   17.4055 C   0  0  0  0  0  0  0  0  0  0  0  0
    4.3850   -9.0730   28.6745 C   0  0  0  0  0  0  0  0  0  0  0  0
  1  7  4  0
  1 22  4  0
  2 17  4  0
  2 20  4  0
  2 28  4  0
  3  6  1  0
  3 19  1  0
  4 19  1  0
  4 26  1  0
  5 17  4  0
  5 18  4  0
  6 20  1  0
  6 26  1  0
  7 24  4  0
  8 15  4  0
  8 24  4  0
  9 14  4  0
  9 21  4  0
 10 12  4  0
 10 27  4  0
 11 12  4  0
 11 23  4  0
 13 23  4  0
 13 27  4  0
 14 20  4  0
 15 22  4  0
 16 18  4  0
 16 25  2  0
 16 28  4  0
 21 28  4  0
 24 27  1  0
M  END
$$$$

 Created by Python create_sdf_string function

 28 31  0  0  0  0  0  0  0  0999 V2000
   -1.0054  -13.0622   19.1198 C   0  0  0  0  0  0  0  0  0  0  0  0
    3.1478   -8.5360   28.5161 C   0  0  0  0  0  0  0  0  0  0  0  0
    0.5798   -7.1906   27.9330 C   0  0  0  0  0  0  0  0  0  0  0  0
    0.3978   -5.1561   26.6955 C   0  0  0  0  0  0  0  0  0  0  0  0
    2.3063  -10.0533   30.0125 C   0  0  0  0  0  0  0  0  0  0  0  0
    1.8591   -6.8254   27.4685 N   0  0  0  0  0  0  0  0  0  0  0  0
   -0.2167  -12.1055   18.5568 C   0  0  0  0  0  0  0  0  0  0  0  0
   -2.0661  -10.6994   18.1916 C   0  0  0  0  0  0  0  0  0  0  0  0
    5.2703   -7.5691   27.1123 C   0  0  0  0  0  0  0  0  0  0  0  0
    1.6204   -9.9887   17.2935 C   0  0  0  0  0  0  0  0  0  0  0  0
    1.8931   -7.9265   16.2047 C   0  0  0  0  0  0  0  0  0  0  0  0
    2.4396   -9.0801   16.7132 C   0  0  0  0  0  0  0  0  0  0  0  0
   -0.2575   -8.6234   16.8582 C   0  0  0  0  0  0  0  0  0  0  0  0
    4.0614   -7.0367   27.0106 N   0  0  0  0  0  0  0  0  0  0  0  0
   -2.9133  -11.6279   18.7578 C   0  0  0  0  0  0  0  0  0  0  0  0
    4.5688  -10.1291   29.5758 C   0  0  0  0  0  0  0  0  0  0  0  0
    2.1008   -9.0410   29.1852 N   0  0  0  0  0  0  0  0  0  0  0  0
    3.4829  -10.5697   30.2091 N   0  0  0  0  0  0  0  0  0  0  0  0
   -0.3363   -6.1172   27.5628 C   0  0  0  0  0  0  0  0  0  0  0  0
    3.0331   -7.4400   27.6362 C   0  0  0  0  0  0  0  0  0  0  0  0
    5.4553   -8.5933   27.9644 C   0  0  0  0  0  0  0  0  0  0  0  0
   -2.3870  -12.8440   19.2512 C   0  0  0  0  0  0  0  0  0  0  0  0
    0.5331   -7.6964   16.2751 C   0  0  0  0  0  0  0  0  0  0  0  0
   -0.6740  -10.8737   18.0482 C   0  0  0  0  0  0  0  0  0  0  0  0
    5.6751  -10.5870   29.7637 O   0  0  0  0  0  0  0  0  0  0  0  0
    1.7612   -5.6483   26.7172 C   0  0  0  0  0  0  0  0  0  0  0  0
    0.2221   -9.8326   17.4055 C   0  0  0  0  0  0  0  0  0  0  0  0
    4.3850   -9.0730   28.6745 C   0  0  0  0  0  0  0  0  0  0  0  0
  1  7  4  0
  1 22  4  0
  2 17  4  0
  2 20  4  0
  2 28  4  0
  3  6  1  0
  3 19  1  0
  4 19  1  0
  4 26  1  0
  5 17  4  0
  5 18  4  0
  6 20  1  0
  6 26  1  0
  7 24  4  0
  8 15  4  0
  8 24  4  0
  9 14  4  0
  9 21  4  0
 10 12  4  0
 10 27  4  0
 11 12  4  0
 11 23  4  0
 13 23  4  0
 13 27  4  0
 14 20  4  0
 15 22  4  0
 16 18  4  0
 16 25  2  0
 16 28  4  0
 21 28  4  0
 24 27  1  0
M  END
$$$$

 Created by Python create_sdf_string function

 28 31  0  0  0  0  0  0  0  0999 V2000
   -1.0054  -13.0622   19.1198 C   0  0  0  0  0  0  0  0  0  0  0  0
    3.1478   -8.5360   28.5161 C   0  0  0  0  0  0  0  0  0  0  0  0
    0.5798   -7.1906   27.9330 C   0  0  0  0  0  0  0  0  0  0  0  0
    0.3978   -5.1561   26.6955 C   0  0  0  0  0  0  0  0  0  0  0  0
    2.3063  -10.0533   30.0125 C   0  0  0  0  0  0  0  0  0  0  0  0
    1.8591   -6.8254   27.4685 N   0  0  0  0  0  0  0  0  0  0  0  0
   -0.2167  -12.1055   18.5568 C   0  0  0  0  0  0  0  0  0  0  0  0
   -2.0661  -10.6994   18.1916 C   0  0  0  0  0  0  0  0  0  0  0  0
    5.2703   -7.5691   27.1123 C   0  0  0  0  0  0  0  0  0  0  0  0
    1.6204   -9.9887   17.2935 C   0  0  0  0  0  0  0  0  0  0  0  0
    1.8931   -7.9265   16.2047 C   0  0  0  0  0  0  0  0  0  0  0  0
    2.4396   -9.0801   16.7132 C   0  0  0  0  0  0  0  0  0  0  0  0
   -0.2575   -8.6234   16.8582 C   0  0  0  0  0  0  0  0  0  0  0  0
    4.0614   -7.0367   27.0106 N   0  0  0  0  0  0  0  0  0  0  0  0
   -2.9133  -11.6279   18.7578 C   0  0  0  0  0  0  0  0  0  0  0  0
    4.5688  -10.1291   29.5758 C   0  0  0  0  0  0  0  0  0  0  0  0
    2.1008   -9.0410   29.1852 N   0  0  0  0  0  0  0  0  0  0  0  0
    3.4829  -10.5697   30.2091 N   0  0  0  0  0  0  0  0  0  0  0  0
   -0.3363   -6.1172   27.5628 C   0  0  0  0  0  0  0  0  0  0  0  0
    3.0331   -7.4400   27.6362 C   0  0  0  0  0  0  0  0  0  0  0  0
    5.4553   -8.5933   27.9644 C   0  0  0  0  0  0  0  0  0  0  0  0
   -2.3870  -12.8440   19.2512 C   0  0  0  0  0  0  0  0  0  0  0  0
    0.5331   -7.6964   16.2751 C   0  0  0  0  0  0  0  0  0  0  0  0
   -0.6740  -10.8737   18.0482 C   0  0  0  0  0  0  0  0  0  0  0  0
    5.6751  -10.5870   29.7637 O   0  0  0  0  0  0  0  0  0  0  0  0
    1.7612   -5.6483   26.7172 C   0  0  0  0  0  0  0  0  0  0  0  0
    0.2221   -9.8326   17.4055 C   0  0  0  0  0  0  0  0  0  0  0  0
    4.3850   -9.0730   28.6745 C   0  0  0  0  0  0  0  0  0  0  0  0
  1  7  4  0
  1 22  4  0
  2 17  4  0
  2 20  4  0
  2 28  4  0
  3  6  1  0
  3 19  1  0
  4 19  1  0
  4 26  1  0
  5 17  4  0
  5 18  4  0
  6 20  1  0
  6 26  1  0
  7 24  4  0
  8 15  4  0
  8 24  4  0
  9 14  4  0
  9 21  4  0
 10 12  4  0
 10 27  4  0
 11 12  4  0
 11 23  4  0
 13 23  4  0
 13 27  4  0
 14 20  4  0
 15 22  4  0
 16 18  4  0
 16 25  2  0
 16 28  4  0
 21 28  4  0
 24 27  1  0
M  END
$$$$

 Created by Python create_sdf_string function

 28 31  0  0  0  0  0  0  0  0999 V2000
   -1.0054  -13.0622   19.1198 C   0  0  0  0  0  0  0  0  0  0  0  0
    3.1478   -8.5360   28.5161 C   0  0  0  0  0  0  0  0  0  0  0  0
    0.5798   -7.1906   27.9330 C   0  0  0  0  0  0  0  0  0  0  0  0
    0.3978   -5.1561   26.6955 C   0  0  0  0  0  0  0  0  0  0  0  0
    2.3063  -10.0533   30.0125 C   0  0  0  0  0  0  0  0  0  0  0  0
    1.8591   -6.8254   27.4685 N   0  0  0  0  0  0  0  0  0  0  0  0
   -0.2167  -12.1055   18.5568 C   0  0  0  0  0  0  0  0  0  0  0  0
   -2.0661  -10.6994   18.1916 C   0  0  0  0  0  0  0  0  0  0  0  0
    5.2703   -7.5691   27.1123 C   0  0  0  0  0  0  0  0  0  0  0  0
    1.6204   -9.9887   17.2935 C   0  0  0  0  0  0  0  0  0  0  0  0
    1.8931   -7.9265   16.2047 C   0  0  0  0  0  0  0  0  0  0  0  0
    2.4396   -9.0801   16.7132 C   0  0  0  0  0  0  0  0  0  0  0  0
   -0.2575   -8.6234   16.8582 C   0  0  0  0  0  0  0  0  0  0  0  0
    4.0614   -7.0367   27.0106 N   0  0  0  0  0  0  0  0  0  0  0  0
   -2.9133  -11.6279   18.7578 C   0  0  0  0  0  0  0  0  0  0  0  0
    4.5688  -10.1291   29.5758 C   0  0  0  0  0  0  0  0  0  0  0  0
    2.1008   -9.0410   29.1852 N   0  0  0  0  0  0  0  0  0  0  0  0
    3.4829  -10.5697   30.2091 N   0  0  0  0  0  0  0  0  0  0  0  0
   -0.3363   -6.1172   27.5628 C   0  0  0  0  0  0  0  0  0  0  0  0
    3.0331   -7.4400   27.6362 C   0  0  0  0  0  0  0  0  0  0  0  0
    5.4553   -8.5933   27.9644 C   0  0  0  0  0  0  0  0  0  0  0  0
   -2.3870  -12.8440   19.2512 C   0  0  0  0  0  0  0  0  0  0  0  0
    0.5331   -7.6964   16.2751 C   0  0  0  0  0  0  0  0  0  0  0  0
   -0.6740  -10.8737   18.0482 C   0  0  0  0  0  0  0  0  0  0  0  0
    5.6751  -10.5870   29.7637 O   0  0  0  0  0  0  0  0  0  0  0  0
    1.7612   -5.6483   26.7172 C   0  0  0  0  0  0  0  0  0  0  0  0
    0.2221   -9.8326   17.4055 C   0  0  0  0  0  0  0  0  0  0  0  0
    4.3850   -9.0730   28.6745 C   0  0  0  0  0  0  0  0  0  0  0  0
  1  7  4  0
  1 22  4  0
  2 17  4  0
  2 20  4  0
  2 28  4  0
  3  6  1  0
  3 19  1  0
  4 19  1  0
  4 26  1  0
  5 17  4  0
  5 18  4  0
  6 20  1  0
  6 26  1  0
  7 24  4  0
  8 15  4  0
  8 24  4  0
  9 14  4  0
  9 21  4  0
 10 12  4  0
 10 27  4  0
 11 12  4  0
 11 23  4  0
 13 23  4  0
 13 27  4  0
 14 20  4  0
 15 22  4  0
 16 18  4  0
 16 25  2  0
 16 28  4  0
 21 28  4  0
 24 27  1  0
M  END
$$$$

 Created by Python create_sdf_string function

 28 31  0  0  0  0  0  0  0  0999 V2000
   -1.0054  -13.0622   19.1198 C   0  0  0  0  0  0  0  0  0  0  0  0
    3.1478   -8.5360   28.5161 C   0  0  0  0  0  0  0  0  0  0  0  0
    0.5798   -7.1906   27.9330 C   0  0  0  0  0  0  0  0  0  0  0  0
    0.3978   -5.1561   26.6955 C   0  0  0  0  0  0  0  0  0  0  0  0
    2.3063  -10.0533   30.0125 C   0  0  0  0  0  0  0  0  0  0  0  0
    1.8591   -6.8254   27.4685 N   0  0  0  0  0  0  0  0  0  0  0  0
   -0.2167  -12.1055   18.5568 C   0  0  0  0  0  0  0  0  0  0  0  0
   -2.0661  -10.6994   18.1916 C   0  0  0  0  0  0  0  0  0  0  0  0
    5.2703   -7.5691   27.1123 C   0  0  0  0  0  0  0  0  0  0  0  0
    1.6204   -9.9887   17.2935 C   0  0  0  0  0  0  0  0  0  0  0  0
    1.8931   -7.9265   16.2047 C   0  0  0  0  0  0  0  0  0  0  0  0
    2.4396   -9.0801   16.7132 C   0  0  0  0  0  0  0  0  0  0  0  0
   -0.2575   -8.6234   16.8582 C   0  0  0  0  0  0  0  0  0  0  0  0
    4.0614   -7.0367   27.0106 N   0  0  0  0  0  0  0  0  0  0  0  0
   -2.9133  -11.6279   18.7578 C   0  0  0  0  0  0  0  0  0  0  0  0
    4.5688  -10.1291   29.5758 C   0  0  0  0  0  0  0  0  0  0  0  0
    2.1008   -9.0410   29.1852 N   0  0  0  0  0  0  0  0  0  0  0  0
    3.4829  -10.5697   30.2091 N   0  0  0  0  0  0  0  0  0  0  0  0
   -0.3363   -6.1172   27.5628 C   0  0  0  0  0  0  0  0  0  0  0  0
    3.0331   -7.4400   27.6362 C   0  0  0  0  0  0  0  0  0  0  0  0
    5.4553   -8.5933   27.9644 C   0  0  0  0  0  0  0  0  0  0  0  0
   -2.3870  -12.8440   19.2512 C   0  0  0  0  0  0  0  0  0  0  0  0
    0.5331   -7.6964   16.2751 C   0  0  0  0  0  0  0  0  0  0  0  0
   -0.6740  -10.8737   18.0482 C   0  0  0  0  0  0  0  0  0  0  0  0
    5.6751  -10.5870   29.7637 O   0  0  0  0  0  0  0  0  0  0  0  0
    1.7612   -5.6483   26.7172 C   0  0  0  0  0  0  0  0  0  0  0  0
    0.2221   -9.8326   17.4055 C   0  0  0  0  0  0  0  0  0  0  0  0
    4.3850   -9.0730   28.6745 C   0  0  0  0  0  0  0  0  0  0  0  0
  1  7  4  0
  1 22  4  0
  2 17  4  0
  2 20  4  0
  2 28  4  0
  3  6  1  0
  3 19  1  0
  4 19  1  0
  4 26  1  0
  5 17  4  0
  5 18  4  0
  6 20  1  0
  6 26  1  0
  7 24  4  0
  8 15  4  0
  8 24  4  0
  9 14  4  0
  9 21  4  0
 10 12  4  0
 10 27  4  0
 11 12  4  0
 11 23  4  0
 13 23  4  0
 13 27  4  0
 14 20  4  0
 15 22  4  0
 16 18  4  0
 16 25  2  0
 16 28  4  0
 21 28  4  0
 24 27  1  0
M  END
$$$$

 Created by Python create_sdf_string function

 28 31  0  0  0  0  0  0  0  0999 V2000
   -1.0054  -13.0622   19.1198 C   0  0  0  0  0  0  0  0  0  0  0  0
    3.1478   -8.5360   28.5161 C   0  0  0  0  0  0  0  0  0  0  0  0
    0.5798   -7.1906   27.9330 C   0  0  0  0  0  0  0  0  0  0  0  0
    0.3978   -5.1561   26.6955 C   0  0  0  0  0  0  0  0  0  0  0  0
    2.3063  -10.0533   30.0125 C   0  0  0  0  0  0  0  0  0  0  0  0
    1.8591   -6.8254   27.4685 N   0  0  0  0  0  0  0  0  0  0  0  0
   -0.2167  -12.1055   18.5568 C   0  0  0  0  0  0  0  0  0  0  0  0
   -2.0661  -10.6994   18.1916 C   0  0  0  0  0  0  0  0  0  0  0  0
    5.2703   -7.5691   27.1123 C   0  0  0  0  0  0  0  0  0  0  0  0
    1.6204   -9.9887   17.2935 C   0  0  0  0  0  0  0  0  0  0  0  0
    1.8931   -7.9265   16.2047 C   0  0  0  0  0  0  0  0  0  0  0  0
    2.4396   -9.0801   16.7132 C   0  0  0  0  0  0  0  0  0  0  0  0
   -0.2575   -8.6234   16.8582 C   0  0  0  0  0  0  0  0  0  0  0  0
    4.0614   -7.0367   27.0106 N   0  0  0  0  0  0  0  0  0  0  0  0
   -2.9133  -11.6279   18.7578 C   0  0  0  0  0  0  0  0  0  0  0  0
    4.5688  -10.1291   29.5758 C   0  0  0  0  0  0  0  0  0  0  0  0
    2.1008   -9.0410   29.1852 N   0  0  0  0  0  0  0  0  0  0  0  0
    3.4829  -10.5697   30.2091 N   0  0  0  0  0  0  0  0  0  0  0  0
   -0.3363   -6.1172   27.5628 C   0  0  0  0  0  0  0  0  0  0  0  0
    3.0331   -7.4400   27.6362 C   0  0  0  0  0  0  0  0  0  0  0  0
    5.4553   -8.5933   27.9644 C   0  0  0  0  0  0  0  0  0  0  0  0
   -2.3870  -12.8440   19.2512 C   0  0  0  0  0  0  0  0  0  0  0  0
    0.5331   -7.6964   16.2751 C   0  0  0  0  0  0  0  0  0  0  0  0
   -0.6740  -10.8737   18.0482 C   0  0  0  0  0  0  0  0  0  0  0  0
    5.6751  -10.5870   29.7637 O   0  0  0  0  0  0  0  0  0  0  0  0
    1.7612   -5.6483   26.7172 C   0  0  0  0  0  0  0  0  0  0  0  0
    0.2221   -9.8326   17.4055 C   0  0  0  0  0  0  0  0  0  0  0  0
    4.3850   -9.0730   28.6745 C   0  0  0  0  0  0  0  0  0  0  0  0
  1  7  4  0
  1 22  4  0
  2 17  4  0
  2 20  4  0
  2 28  4  0
  3  6  1  0
  3 19  1  0
  4 19  1  0
  4 26  1  0
  5 17  4  0
  5 18  4  0
  6 20  1  0
  6 26  1  0
  7 24  4  0
  8 15  4  0
  8 24  4  0
  9 14  4  0
  9 21  4  0
 10 12  4  0
 10 27  4  0
 11 12  4  0
 11 23  4  0
 13 23  4  0
 13 27  4  0
 14 20  4  0
 15 22  4  0
 16 18  4  0
 16 25  2  0
 16 28  4  0
 21 28  4  0
 24 27  1  0
M  END
$$$$

 Created by Python create_sdf_string function

 28 31  0  0  0  0  0  0  0  0999 V2000
   -1.0054  -13.0622   19.1198 C   0  0  0  0  0  0  0  0  0  0  0  0
    3.1478   -8.5360   28.5161 C   0  0  0  0  0  0  0  0  0  0  0  0
    0.5798   -7.1906   27.9330 C   0  0  0  0  0  0  0  0  0  0  0  0
    0.3978   -5.1561   26.6955 C   0  0  0  0  0  0  0  0  0  0  0  0
    2.3063  -10.0533   30.0125 C   0  0  0  0  0  0  0  0  0  0  0  0
    1.8591   -6.8254   27.4685 N   0  0  0  0  0  0  0  0  0  0  0  0
   -0.2167  -12.1055   18.5568 C   0  0  0  0  0  0  0  0  0  0  0  0
   -2.0661  -10.6994   18.1916 C   0  0  0  0  0  0  0  0  0  0  0  0
    5.2703   -7.5691   27.1123 C   0  0  0  0  0  0  0  0  0  0  0  0
    1.6204   -9.9887   17.2935 C   0  0  0  0  0  0  0  0  0  0  0  0
    1.8931   -7.9265   16.2047 C   0  0  0  0  0  0  0  0  0  0  0  0
    2.4396   -9.0801   16.7132 C   0  0  0  0  0  0  0  0  0  0  0  0
   -0.2575   -8.6234   16.8582 C   0  0  0  0  0  0  0  0  0  0  0  0
    4.0614   -7.0367   27.0106 N   0  0  0  0  0  0  0  0  0  0  0  0
   -2.9133  -11.6279   18.7578 C   0  0  0  0  0  0  0  0  0  0  0  0
    4.5688  -10.1291   29.5758 C   0  0  0  0  0  0  0  0  0  0  0  0
    2.1008   -9.0410   29.1852 N   0  0  0  0  0  0  0  0  0  0  0  0
    3.4829  -10.5697   30.2091 N   0  0  0  0  0  0  0  0  0  0  0  0
   -0.3363   -6.1172   27.5628 C   0  0  0  0  0  0  0  0  0  0  0  0
    3.0331   -7.4400   27.6362 C   0  0  0  0  0  0  0  0  0  0  0  0
    5.4553   -8.5933   27.9644 C   0  0  0  0  0  0  0  0  0  0  0  0
   -2.3870  -12.8440   19.2512 C   0  0  0  0  0  0  0  0  0  0  0  0
    0.5331   -7.6964   16.2751 C   0  0  0  0  0  0  0  0  0  0  0  0
   -0.6740  -10.8737   18.0482 C   0  0  0  0  0  0  0  0  0  0  0  0
    5.6751  -10.5870   29.7637 O   0  0  0  0  0  0  0  0  0  0  0  0
    1.7612   -5.6483   26.7172 C   0  0  0  0  0  0  0  0  0  0  0  0
    0.2221   -9.8326   17.4055 C   0  0  0  0  0  0  0  0  0  0  0  0
    4.3850   -9.0730   28.6745 C   0  0  0  0  0  0  0  0  0  0  0  0
  1  7  4  0
  1 22  4  0
  2 17  4  0
  2 20  4  0
  2 28  4  0
  3  6  1  0
  3 19  1  0
  4 19  1  0
  4 26  1  0
  5 17  4  0
  5 18  4  0
  6 20  1  0
  6 26  1  0
  7 24  4  0
  8 15  4  0
  8 24  4  0
  9 14  4  0
  9 21  4  0
 10 12  4  0
 10 27  4  0
 11 12  4  0
 11 23  4  0
 13 23  4  0
 13 27  4  0
 14 20  4  0
 15 22  4  0
 16 18  4  0
 16 25  2  0
 16 28  4  0
 21 28  4  0
 24 27  1  0
M  END
$$$$

 Created by Python create_sdf_string function

 28 31  0  0  0  0  0  0  0  0999 V2000
   -1.0054  -13.0622   19.1198 C   0  0  0  0  0  0  0  0  0  0  0  0
    3.1478   -8.5360   28.5161 C   0  0  0  0  0  0  0  0  0  0  0  0
    0.5798   -7.1906   27.9330 C   0  0  0  0  0  0  0  0  0  0  0  0
    0.3978   -5.1561   26.6955 C   0  0  0  0  0  0  0  0  0  0  0  0
    2.3063  -10.0533   30.0125 C   0  0  0  0  0  0  0  0  0  0  0  0
    1.8591   -6.8254   27.4685 N   0  0  0  0  0  0  0  0  0  0  0  0
   -0.2167  -12.1055   18.5568 C   0  0  0  0  0  0  0  0  0  0  0  0
   -2.0661  -10.6994   18.1916 C   0  0  0  0  0  0  0  0  0  0  0  0
    5.2703   -7.5691   27.1123 C   0  0  0  0  0  0  0  0  0  0  0  0
    1.6204   -9.9887   17.2935 C   0  0  0  0  0  0  0  0  0  0  0  0
    1.8931   -7.9265   16.2047 C   0  0  0  0  0  0  0  0  0  0  0  0
    2.4396   -9.0801   16.7132 C   0  0  0  0  0  0  0  0  0  0  0  0
   -0.2575   -8.6234   16.8582 C   0  0  0  0  0  0  0  0  0  0  0  0
    4.0614   -7.0367   27.0106 N   0  0  0  0  0  0  0  0  0  0  0  0
   -2.9133  -11.6279   18.7578 C   0  0  0  0  0  0  0  0  0  0  0  0
    4.5688  -10.1291   29.5758 C   0  0  0  0  0  0  0  0  0  0  0  0
    2.1008   -9.0410   29.1852 N   0  0  0  0  0  0  0  0  0  0  0  0
    3.4829  -10.5697   30.2091 N   0  0  0  0  0  0  0  0  0  0  0  0
   -0.3363   -6.1172   27.5628 C   0  0  0  0  0  0  0  0  0  0  0  0
    3.0331   -7.4400   27.6362 C   0  0  0  0  0  0  0  0  0  0  0  0
    5.4553   -8.5933   27.9644 C   0  0  0  0  0  0  0  0  0  0  0  0
   -2.3870  -12.8440   19.2512 C   0  0  0  0  0  0  0  0  0  0  0  0
    0.5331   -7.6964   16.2751 C   0  0  0  0  0  0  0  0  0  0  0  0
   -0.6740  -10.8737   18.0482 C   0  0  0  0  0  0  0  0  0  0  0  0
    5.6751  -10.5870   29.7637 O   0  0  0  0  0  0  0  0  0  0  0  0
    1.7612   -5.6483   26.7172 C   0  0  0  0  0  0  0  0  0  0  0  0
    0.2221   -9.8326   17.4055 C   0  0  0  0  0  0  0  0  0  0  0  0
    4.3850   -9.0730   28.6745 C   0  0  0  0  0  0  0  0  0  0  0  0
  1  7  4  0
  1 22  4  0
  2 17  4  0
  2 20  4  0
  2 28  4  0
  3  6  1  0
  3 19  1  0
  4 19  1  0
  4 26  1  0
  5 17  4  0
  5 18  4  0
  6 20  1  0
  6 26  1  0
  7 24  4  0
  8 15  4  0
  8 24  4  0
  9 14  4  0
  9 21  4  0
 10 12  4  0
 10 27  4  0
 11 12  4  0
 11 23  4  0
 13 23  4  0
 13 27  4  0
 14 20  4  0
 15 22  4  0
 16 18  4  0
 16 25  2  0
 16 28  4  0
 21 28  4  0
 24 27  1  0
M  END
$$$$

 Created by Python create_sdf_string function

 28 31  0  0  0  0  0  0  0  0999 V2000
   -1.0054  -13.0622   19.1198 C   0  0  0  0  0  0  0  0  0  0  0  0
    3.1478   -8.5360   28.5161 C   0  0  0  0  0  0  0  0  0  0  0  0
    0.5798   -7.1906   27.9330 C   0  0  0  0  0  0  0  0  0  0  0  0
    0.3978   -5.1561   26.6955 C   0  0  0  0  0  0  0  0  0  0  0  0
    2.3063  -10.0533   30.0125 C   0  0  0  0  0  0  0  0  0  0  0  0
    1.8591   -6.8254   27.4685 N   0  0  0  0  0  0  0  0  0  0  0  0
   -0.2167  -12.1055   18.5568 C   0  0  0  0  0  0  0  0  0  0  0  0
   -2.0661  -10.6994   18.1916 C   0  0  0  0  0  0  0  0  0  0  0  0
    5.2703   -7.5691   27.1123 C   0  0  0  0  0  0  0  0  0  0  0  0
    1.6204   -9.9887   17.2935 C   0  0  0  0  0  0  0  0  0  0  0  0
    1.8931   -7.9265   16.2047 C   0  0  0  0  0  0  0  0  0  0  0  0
    2.4396   -9.0801   16.7132 C   0  0  0  0  0  0  0  0  0  0  0  0
   -0.2575   -8.6234   16.8582 C   0  0  0  0  0  0  0  0  0  0  0  0
    4.0614   -7.0367   27.0106 N   0  0  0  0  0  0  0  0  0  0  0  0
   -2.9133  -11.6279   18.7578 C   0  0  0  0  0  0  0  0  0  0  0  0
    4.5688  -10.1291   29.5758 C   0  0  0  0  0  0  0  0  0  0  0  0
    2.1008   -9.0410   29.1852 N   0  0  0  0  0  0  0  0  0  0  0  0
    3.4829  -10.5697   30.2091 N   0  0  0  0  0  0  0  0  0  0  0  0
   -0.3363   -6.1172   27.5628 C   0  0  0  0  0  0  0  0  0  0  0  0
    3.0331   -7.4400   27.6362 C   0  0  0  0  0  0  0  0  0  0  0  0
    5.4553   -8.5933   27.9644 C   0  0  0  0  0  0  0  0  0  0  0  0
   -2.3870  -12.8440   19.2512 C   0  0  0  0  0  0  0  0  0  0  0  0
    0.5331   -7.6964   16.2751 C   0  0  0  0  0  0  0  0  0  0  0  0
   -0.6740  -10.8737   18.0482 C   0  0  0  0  0  0  0  0  0  0  0  0
    5.6751  -10.5870   29.7637 O   0  0  0  0  0  0  0  0  0  0  0  0
    1.7612   -5.6483   26.7172 C   0  0  0  0  0  0  0  0  0  0  0  0
    0.2221   -9.8326   17.4055 C   0  0  0  0  0  0  0  0  0  0  0  0
    4.3850   -9.0730   28.6745 C   0  0  0  0  0  0  0  0  0  0  0  0
  1  7  4  0
  1 22  4  0
  2 17  4  0
  2 20  4  0
  2 28  4  0
  3  6  1  0
  3 19  1  0
  4 19  1  0
  4 26  1  0
  5 17  4  0
  5 18  4  0
  6 20  1  0
  6 26  1  0
  7 24  4  0
  8 15  4  0
  8 24  4  0
  9 14  4  0
  9 21  4  0
 10 12  4  0
 10 27  4  0
 11 12  4  0
 11 23  4  0
 13 23  4  0
 13 27  4  0
 14 20  4  0
 15 22  4  0
 16 18  4  0
 16 25  2  0
 16 28  4  0
 21 28  4  0
 24 27  1  0
M  END
$$$$

 Created by Python create_sdf_string function

 28 31  0  0  0  0  0  0  0  0999 V2000
   -1.0054  -13.0622   19.1198 C   0  0  0  0  0  0  0  0  0  0  0  0
    3.1478   -8.5360   28.5161 C   0  0  0  0  0  0  0  0  0  0  0  0
    0.5798   -7.1906   27.9330 C   0  0  0  0  0  0  0  0  0  0  0  0
    0.3978   -5.1561   26.6955 C   0  0  0  0  0  0  0  0  0  0  0  0
    2.3063  -10.0533   30.0125 C   0  0  0  0  0  0  0  0  0  0  0  0
    1.8591   -6.8254   27.4685 N   0  0  0  0  0  0  0  0  0  0  0  0
   -0.2167  -12.1055   18.5568 C   0  0  0  0  0  0  0  0  0  0  0  0
   -2.0661  -10.6994   18.1916 C   0  0  0  0  0  0  0  0  0  0  0  0
    5.2703   -7.5691   27.1123 C   0  0  0  0  0  0  0  0  0  0  0  0
    1.6204   -9.9887   17.2935 C   0  0  0  0  0  0  0  0  0  0  0  0
    1.8931   -7.9265   16.2047 C   0  0  0  0  0  0  0  0  0  0  0  0
    2.4396   -9.0801   16.7132 C   0  0  0  0  0  0  0  0  0  0  0  0
   -0.2575   -8.6234   16.8582 C   0  0  0  0  0  0  0  0  0  0  0  0
    4.0614   -7.0367   27.0106 N   0  0  0  0  0  0  0  0  0  0  0  0
   -2.9133  -11.6279   18.7578 C   0  0  0  0  0  0  0  0  0  0  0  0
    4.5688  -10.1291   29.5758 C   0  0  0  0  0  0  0  0  0  0  0  0
    2.1008   -9.0410   29.1852 N   0  0  0  0  0  0  0  0  0  0  0  0
    3.4829  -10.5697   30.2091 N   0  0  0  0  0  0  0  0  0  0  0  0
   -0.3363   -6.1172   27.5628 C   0  0  0  0  0  0  0  0  0  0  0  0
    3.0331   -7.4400   27.6362 C   0  0  0  0  0  0  0  0  0  0  0  0
    5.4553   -8.5933   27.9644 C   0  0  0  0  0  0  0  0  0  0  0  0
   -2.3870  -12.8440   19.2512 C   0  0  0  0  0  0  0  0  0  0  0  0
    0.5331   -7.6964   16.2751 C   0  0  0  0  0  0  0  0  0  0  0  0
   -0.6740  -10.8737   18.0482 C   0  0  0  0  0  0  0  0  0  0  0  0
    5.6751  -10.5870   29.7637 O   0  0  0  0  0  0  0  0  0  0  0  0
    1.7612   -5.6483   26.7172 C   0  0  0  0  0  0  0  0  0  0  0  0
    0.2221   -9.8326   17.4055 C   0  0  0  0  0  0  0  0  0  0  0  0
    4.3850   -9.0730   28.6745 C   0  0  0  0  0  0  0  0  0  0  0  0
  1  7  4  0
  1 22  4  0
  2 17  4  0
  2 20  4  0
  2 28  4  0
  3  6  1  0
  3 19  1  0
  4 19  1  0
  4 26  1  0
  5 17  4  0
  5 18  4  0
  6 20  1  0
  6 26  1  0
  7 24  4  0
  8 15  4  0
  8 24  4  0
  9 14  4  0
  9 21  4  0
 10 12  4  0
 10 27  4  0
 11 12  4  0
 11 23  4  0
 13 23  4  0
 13 27  4  0
 14 20  4  0
 15 22  4  0
 16 18  4  0
 16 25  2  0
 16 28  4  0
 21 28  4  0
 24 27  1  0
M  END
$$$$

 Created by Python create_sdf_string function

 28 31  0  0  0  0  0  0  0  0999 V2000
   -1.0054  -13.0622   19.1198 C   0  0  0  0  0  0  0  0  0  0  0  0
    3.1478   -8.5360   28.5161 C   0  0  0  0  0  0  0  0  0  0  0  0
    0.5798   -7.1906   27.9330 C   0  0  0  0  0  0  0  0  0  0  0  0
    0.3978   -5.1561   26.6955 C   0  0  0  0  0  0  0  0  0  0  0  0
    2.3063  -10.0533   30.0125 C   0  0  0  0  0  0  0  0  0  0  0  0
    1.8591   -6.8254   27.4685 N   0  0  0  0  0  0  0  0  0  0  0  0
   -0.2167  -12.1055   18.5568 C   0  0  0  0  0  0  0  0  0  0  0  0
   -2.0661  -10.6994   18.1916 C   0  0  0  0  0  0  0  0  0  0  0  0
    5.2703   -7.5691   27.1123 C   0  0  0  0  0  0  0  0  0  0  0  0
    1.6204   -9.9887   17.2935 C   0  0  0  0  0  0  0  0  0  0  0  0
    1.8931   -7.9265   16.2047 C   0  0  0  0  0  0  0  0  0  0  0  0
    2.4396   -9.0801   16.7132 C   0  0  0  0  0  0  0  0  0  0  0  0
   -0.2575   -8.6234   16.8582 C   0  0  0  0  0  0  0  0  0  0  0  0
    4.0614   -7.0367   27.0106 N   0  0  0  0  0  0  0  0  0  0  0  0
   -2.9133  -11.6279   18.7578 C   0  0  0  0  0  0  0  0  0  0  0  0
    4.5688  -10.1291   29.5758 C   0  0  0  0  0  0  0  0  0  0  0  0
    2.1008   -9.0410   29.1852 N   0  0  0  0  0  0  0  0  0  0  0  0
    3.4829  -10.5697   30.2091 N   0  0  0  0  0  0  0  0  0  0  0  0
   -0.3363   -6.1172   27.5628 C   0  0  0  0  0  0  0  0  0  0  0  0
    3.0331   -7.4400   27.6362 C   0  0  0  0  0  0  0  0  0  0  0  0
    5.4553   -8.5933   27.9644 C   0  0  0  0  0  0  0  0  0  0  0  0
   -2.3870  -12.8440   19.2512 C   0  0  0  0  0  0  0  0  0  0  0  0
    0.5331   -7.6964   16.2751 C   0  0  0  0  0  0  0  0  0  0  0  0
   -0.6740  -10.8737   18.0482 C   0  0  0  0  0  0  0  0  0  0  0  0
    5.6751  -10.5870   29.7637 O   0  0  0  0  0  0  0  0  0  0  0  0
    1.7612   -5.6483   26.7172 C   0  0  0  0  0  0  0  0  0  0  0  0
    0.2221   -9.8326   17.4055 C   0  0  0  0  0  0  0  0  0  0  0  0
    4.3850   -9.0730   28.6745 C   0  0  0  0  0  0  0  0  0  0  0  0
  1  7  4  0
  1 22  4  0
  2 17  4  0
  2 20  4  0
  2 28  4  0
  3  6  1  0
  3 19  1  0
  4 19  1  0
  4 26  1  0
  5 17  4  0
  5 18  4  0
  6 20  1  0
  6 26  1  0
  7 24  4  0
  8 15  4  0
  8 24  4  0
  9 14  4  0
  9 21  4  0
 10 12  4  0
 10 27  4  0
 11 12  4  0
 11 23  4  0
 13 23  4  0
 13 27  4  0
 14 20  4  0
 15 22  4  0
 16 18  4  0
 16 25  2  0
 16 28  4  0
 21 28  4  0
 24 27  1  0
M  END
$$$$

 Created by Python create_sdf_string function

 28 31  0  0  0  0  0  0  0  0999 V2000
   -1.0054  -13.0622   19.1198 C   0  0  0  0  0  0  0  0  0  0  0  0
    3.1478   -8.5360   28.5161 C   0  0  0  0  0  0  0  0  0  0  0  0
    0.5798   -7.1906   27.9330 C   0  0  0  0  0  0  0  0  0  0  0  0
    0.3978   -5.1561   26.6955 C   0  0  0  0  0  0  0  0  0  0  0  0
    2.3063  -10.0533   30.0125 C   0  0  0  0  0  0  0  0  0  0  0  0
    1.8591   -6.8254   27.4685 N   0  0  0  0  0  0  0  0  0  0  0  0
   -0.2167  -12.1055   18.5568 C   0  0  0  0  0  0  0  0  0  0  0  0
   -2.0661  -10.6994   18.1916 C   0  0  0  0  0  0  0  0  0  0  0  0
    5.2703   -7.5691   27.1123 C   0  0  0  0  0  0  0  0  0  0  0  0
    1.6204   -9.9887   17.2935 C   0  0  0  0  0  0  0  0  0  0  0  0
    1.8931   -7.9265   16.2047 C   0  0  0  0  0  0  0  0  0  0  0  0
    2.4396   -9.0801   16.7132 C   0  0  0  0  0  0  0  0  0  0  0  0
   -0.2575   -8.6234   16.8582 C   0  0  0  0  0  0  0  0  0  0  0  0
    4.0614   -7.0367   27.0106 N   0  0  0  0  0  0  0  0  0  0  0  0
   -2.9133  -11.6279   18.7578 C   0  0  0  0  0  0  0  0  0  0  0  0
    4.5688  -10.1291   29.5758 C   0  0  0  0  0  0  0  0  0  0  0  0
    2.1008   -9.0410   29.1852 N   0  0  0  0  0  0  0  0  0  0  0  0
    3.4829  -10.5697   30.2091 N   0  0  0  0  0  0  0  0  0  0  0  0
   -0.3363   -6.1172   27.5628 C   0  0  0  0  0  0  0  0  0  0  0  0
    3.0331   -7.4400   27.6362 C   0  0  0  0  0  0  0  0  0  0  0  0
    5.4553   -8.5933   27.9644 C   0  0  0  0  0  0  0  0  0  0  0  0
   -2.3870  -12.8440   19.2512 C   0  0  0  0  0  0  0  0  0  0  0  0
    0.5331   -7.6964   16.2751 C   0  0  0  0  0  0  0  0  0  0  0  0
   -0.6740  -10.8737   18.0482 C   0  0  0  0  0  0  0  0  0  0  0  0
    5.6751  -10.5870   29.7637 O   0  0  0  0  0  0  0  0  0  0  0  0
    1.7612   -5.6483   26.7172 C   0  0  0  0  0  0  0  0  0  0  0  0
    0.2221   -9.8326   17.4055 C   0  0  0  0  0  0  0  0  0  0  0  0
    4.3850   -9.0730   28.6745 C   0  0  0  0  0  0  0  0  0  0  0  0
  1  7  4  0
  1 22  4  0
  2 17  4  0
  2 20  4  0
  2 28  4  0
  3  6  1  0
  3 19  1  0
  4 19  1  0
  4 26  1  0
  5 17  4  0
  5 18  4  0
  6 20  1  0
  6 26  1  0
  7 24  4  0
  8 15  4  0
  8 24  4  0
  9 14  4  0
  9 21  4  0
 10 12  4  0
 10 27  4  0
 11 12  4  0
 11 23  4  0
 13 23  4  0
 13 27  4  0
 14 20  4  0
 15 22  4  0
 16 18  4  0
 16 25  2  0
 16 28  4  0
 21 28  4  0
 24 27  1  0
M  END
$$$$

 Created by Python create_sdf_string function

 28 31  0  0  0  0  0  0  0  0999 V2000
   -1.0054  -13.0622   19.1198 C   0  0  0  0  0  0  0  0  0  0  0  0
    3.1478   -8.5360   28.5161 C   0  0  0  0  0  0  0  0  0  0  0  0
    0.5798   -7.1906   27.9330 C   0  0  0  0  0  0  0  0  0  0  0  0
    0.3978   -5.1561   26.6955 C   0  0  0  0  0  0  0  0  0  0  0  0
    2.3063  -10.0533   30.0125 C   0  0  0  0  0  0  0  0  0  0  0  0
    1.8591   -6.8254   27.4685 N   0  0  0  0  0  0  0  0  0  0  0  0
   -0.2167  -12.1055   18.5568 C   0  0  0  0  0  0  0  0  0  0  0  0
   -2.0661  -10.6994   18.1916 C   0  0  0  0  0  0  0  0  0  0  0  0
    5.2703   -7.5691   27.1123 C   0  0  0  0  0  0  0  0  0  0  0  0
    1.6204   -9.9887   17.2935 C   0  0  0  0  0  0  0  0  0  0  0  0
    1.8931   -7.9265   16.2047 C   0  0  0  0  0  0  0  0  0  0  0  0
    2.4396   -9.0801   16.7132 C   0  0  0  0  0  0  0  0  0  0  0  0
   -0.2575   -8.6234   16.8582 C   0  0  0  0  0  0  0  0  0  0  0  0
    4.0614   -7.0367   27.0106 N   0  0  0  0  0  0  0  0  0  0  0  0
   -2.9133  -11.6279   18.7578 C   0  0  0  0  0  0  0  0  0  0  0  0
    4.5688  -10.1291   29.5758 C   0  0  0  0  0  0  0  0  0  0  0  0
    2.1008   -9.0410   29.1852 N   0  0  0  0  0  0  0  0  0  0  0  0
    3.4829  -10.5697   30.2091 N   0  0  0  0  0  0  0  0  0  0  0  0
   -0.3363   -6.1172   27.5628 C   0  0  0  0  0  0  0  0  0  0  0  0
    3.0331   -7.4400   27.6362 C   0  0  0  0  0  0  0  0  0  0  0  0
    5.4553   -8.5933   27.9644 C   0  0  0  0  0  0  0  0  0  0  0  0
   -2.3870  -12.8440   19.2512 C   0  0  0  0  0  0  0  0  0  0  0  0
    0.5331   -7.6964   16.2751 C   0  0  0  0  0  0  0  0  0  0  0  0
   -0.6740  -10.8737   18.0482 C   0  0  0  0  0  0  0  0  0  0  0  0
    5.6751  -10.5870   29.7637 O   0  0  0  0  0  0  0  0  0  0  0  0
    1.7612   -5.6483   26.7172 C   0  0  0  0  0  0  0  0  0  0  0  0
    0.2221   -9.8326   17.4055 C   0  0  0  0  0  0  0  0  0  0  0  0
    4.3850   -9.0730   28.6745 C   0  0  0  0  0  0  0  0  0  0  0  0
  1  7  4  0
  1 22  4  0
  2 17  4  0
  2 20  4  0
  2 28  4  0
  3  6  1  0
  3 19  1  0
  4 19  1  0
  4 26  1  0
  5 17  4  0
  5 18  4  0
  6 20  1  0
  6 26  1  0
  7 24  4  0
  8 15  4  0
  8 24  4  0
  9 14  4  0
  9 21  4  0
 10 12  4  0
 10 27  4  0
 11 12  4  0
 11 23  4  0
 13 23  4  0
 13 27  4  0
 14 20  4  0
 15 22  4  0
 16 18  4  0
 16 25  2  0
 16 28  4  0
 21 28  4  0
 24 27  1  0
M  END
$$$$

 Created by Python create_sdf_string function

 28 31  0  0  0  0  0  0  0  0999 V2000
   -1.0054  -13.0622   19.1198 C   0  0  0  0  0  0  0  0  0  0  0  0
    3.1478   -8.5360   28.5161 C   0  0  0  0  0  0  0  0  0  0  0  0
    0.5798   -7.1906   27.9330 C   0  0  0  0  0  0  0  0  0  0  0  0
    0.3978   -5.1561   26.6955 C   0  0  0  0  0  0  0  0  0  0  0  0
    2.3063  -10.0533   30.0125 C   0  0  0  0  0  0  0  0  0  0  0  0
    1.8591   -6.8254   27.4685 N   0  0  0  0  0  0  0  0  0  0  0  0
   -0.2167  -12.1055   18.5568 C   0  0  0  0  0  0  0  0  0  0  0  0
   -2.0661  -10.6994   18.1916 C   0  0  0  0  0  0  0  0  0  0  0  0
    5.2703   -7.5691   27.1123 C   0  0  0  0  0  0  0  0  0  0  0  0
    1.6204   -9.9887   17.2935 C   0  0  0  0  0  0  0  0  0  0  0  0
    1.8931   -7.9265   16.2047 C   0  0  0  0  0  0  0  0  0  0  0  0
    2.4396   -9.0801   16.7132 C   0  0  0  0  0  0  0  0  0  0  0  0
   -0.2575   -8.6234   16.8582 C   0  0  0  0  0  0  0  0  0  0  0  0
    4.0614   -7.0367   27.0106 N   0  0  0  0  0  0  0  0  0  0  0  0
   -2.9133  -11.6279   18.7578 C   0  0  0  0  0  0  0  0  0  0  0  0
    4.5688  -10.1291   29.5758 C   0  0  0  0  0  0  0  0  0  0  0  0
    2.1008   -9.0410   29.1852 N   0  0  0  0  0  0  0  0  0  0  0  0
    3.4829  -10.5697   30.2091 N   0  0  0  0  0  0  0  0  0  0  0  0
   -0.3363   -6.1172   27.5628 C   0  0  0  0  0  0  0  0  0  0  0  0
    3.0331   -7.4400   27.6362 C   0  0  0  0  0  0  0  0  0  0  0  0
    5.4553   -8.5933   27.9644 C   0  0  0  0  0  0  0  0  0  0  0  0
   -2.3870  -12.8440   19.2512 C   0  0  0  0  0  0  0  0  0  0  0  0
    0.5331   -7.6964   16.2751 C   0  0  0  0  0  0  0  0  0  0  0  0
   -0.6740  -10.8737   18.0482 C   0  0  0  0  0  0  0  0  0  0  0  0
    5.6751  -10.5870   29.7637 O   0  0  0  0  0  0  0  0  0  0  0  0
    1.7612   -5.6483   26.7172 C   0  0  0  0  0  0  0  0  0  0  0  0
    0.2221   -9.8326   17.4055 C   0  0  0  0  0  0  0  0  0  0  0  0
    4.3850   -9.0730   28.6745 C   0  0  0  0  0  0  0  0  0  0  0  0
  1  7  4  0
  1 22  4  0
  2 17  4  0
  2 20  4  0
  2 28  4  0
  3  6  1  0
  3 19  1  0
  4 19  1  0
  4 26  1  0
  5 17  4  0
  5 18  4  0
  6 20  1  0
  6 26  1  0
  7 24  4  0
  8 15  4  0
  8 24  4  0
  9 14  4  0
  9 21  4  0
 10 12  4  0
 10 27  4  0
 11 12  4  0
 11 23  4  0
 13 23  4  0
 13 27  4  0
 14 20  4  0
 15 22  4  0
 16 18  4  0
 16 25  2  0
 16 28  4  0
 21 28  4  0
 24 27  1  0
M  END
$$$$

 Created by Python create_sdf_string function

 28 31  0  0  0  0  0  0  0  0999 V2000
   -1.0054  -13.0622   19.1198 C   0  0  0  0  0  0  0  0  0  0  0  0
    3.1478   -8.5360   28.5161 C   0  0  0  0  0  0  0  0  0  0  0  0
    0.5798   -7.1906   27.9330 C   0  0  0  0  0  0  0  0  0  0  0  0
    0.3978   -5.1561   26.6955 C   0  0  0  0  0  0  0  0  0  0  0  0
    2.3063  -10.0533   30.0125 C   0  0  0  0  0  0  0  0  0  0  0  0
    1.8591   -6.8254   27.4685 N   0  0  0  0  0  0  0  0  0  0  0  0
   -0.2167  -12.1055   18.5568 C   0  0  0  0  0  0  0  0  0  0  0  0
   -2.0661  -10.6994   18.1916 C   0  0  0  0  0  0  0  0  0  0  0  0
    5.2703   -7.5691   27.1123 C   0  0  0  0  0  0  0  0  0  0  0  0
    1.6204   -9.9887   17.2935 C   0  0  0  0  0  0  0  0  0  0  0  0
    1.8931   -7.9265   16.2047 C   0  0  0  0  0  0  0  0  0  0  0  0
    2.4396   -9.0801   16.7132 C   0  0  0  0  0  0  0  0  0  0  0  0
   -0.2575   -8.6234   16.8582 C   0  0  0  0  0  0  0  0  0  0  0  0
    4.0614   -7.0367   27.0106 N   0  0  0  0  0  0  0  0  0  0  0  0
   -2.9133  -11.6279   18.7578 C   0  0  0  0  0  0  0  0  0  0  0  0
    4.5688  -10.1291   29.5758 C   0  0  0  0  0  0  0  0  0  0  0  0
    2.1008   -9.0410   29.1852 N   0  0  0  0  0  0  0  0  0  0  0  0
    3.4829  -10.5697   30.2091 N   0  0  0  0  0  0  0  0  0  0  0  0
   -0.3363   -6.1172   27.5628 C   0  0  0  0  0  0  0  0  0  0  0  0
    3.0331   -7.4400   27.6362 C   0  0  0  0  0  0  0  0  0  0  0  0
    5.4553   -8.5933   27.9644 C   0  0  0  0  0  0  0  0  0  0  0  0
   -2.3870  -12.8440   19.2512 C   0  0  0  0  0  0  0  0  0  0  0  0
    0.5331   -7.6964   16.2751 C   0  0  0  0  0  0  0  0  0  0  0  0
   -0.6740  -10.8737   18.0482 C   0  0  0  0  0  0  0  0  0  0  0  0
    5.6751  -10.5870   29.7637 O   0  0  0  0  0  0  0  0  0  0  0  0
    1.7612   -5.6483   26.7172 C   0  0  0  0  0  0  0  0  0  0  0  0
    0.2221   -9.8326   17.4055 C   0  0  0  0  0  0  0  0  0  0  0  0
    4.3850   -9.0730   28.6745 C   0  0  0  0  0  0  0  0  0  0  0  0
  1  7  4  0
  1 22  4  0
  2 17  4  0
  2 20  4  0
  2 28  4  0
  3  6  1  0
  3 19  1  0
  4 19  1  0
  4 26  1  0
  5 17  4  0
  5 18  4  0
  6 20  1  0
  6 26  1  0
  7 24  4  0
  8 15  4  0
  8 24  4  0
  9 14  4  0
  9 21  4  0
 10 12  4  0
 10 27  4  0
 11 12  4  0
 11 23  4  0
 13 23  4  0
 13 27  4  0
 14 20  4  0
 15 22  4  0
 16 18  4  0
 16 25  2  0
 16 28  4  0
 21 28  4  0
 24 27  1  0
M  END
$$$$

 Created by Python create_sdf_string function

 28 31  0  0  0  0  0  0  0  0999 V2000
   -1.0054  -13.0622   19.1198 C   0  0  0  0  0  0  0  0  0  0  0  0
    3.1478   -8.5360   28.5161 C   0  0  0  0  0  0  0  0  0  0  0  0
    0.5798   -7.1906   27.9330 C   0  0  0  0  0  0  0  0  0  0  0  0
    0.3978   -5.1561   26.6955 C   0  0  0  0  0  0  0  0  0  0  0  0
    2.3063  -10.0533   30.0125 C   0  0  0  0  0  0  0  0  0  0  0  0
    1.8591   -6.8254   27.4685 N   0  0  0  0  0  0  0  0  0  0  0  0
   -0.2167  -12.1055   18.5568 C   0  0  0  0  0  0  0  0  0  0  0  0
   -2.0661  -10.6994   18.1916 C   0  0  0  0  0  0  0  0  0  0  0  0
    5.2703   -7.5691   27.1123 C   0  0  0  0  0  0  0  0  0  0  0  0
    1.6204   -9.9887   17.2935 C   0  0  0  0  0  0  0  0  0  0  0  0
    1.8931   -7.9265   16.2047 C   0  0  0  0  0  0  0  0  0  0  0  0
    2.4396   -9.0801   16.7132 C   0  0  0  0  0  0  0  0  0  0  0  0
   -0.2575   -8.6234   16.8582 C   0  0  0  0  0  0  0  0  0  0  0  0
    4.0614   -7.0367   27.0106 N   0  0  0  0  0  0  0  0  0  0  0  0
   -2.9133  -11.6279   18.7578 C   0  0  0  0  0  0  0  0  0  0  0  0
    4.5688  -10.1291   29.5758 C   0  0  0  0  0  0  0  0  0  0  0  0
    2.1008   -9.0410   29.1852 N   0  0  0  0  0  0  0  0  0  0  0  0
    3.4829  -10.5697   30.2091 N   0  0  0  0  0  0  0  0  0  0  0  0
   -0.3363   -6.1172   27.5628 C   0  0  0  0  0  0  0  0  0  0  0  0
    3.0331   -7.4400   27.6362 C   0  0  0  0  0  0  0  0  0  0  0  0
    5.4553   -8.5933   27.9644 C   0  0  0  0  0  0  0  0  0  0  0  0
   -2.3870  -12.8440   19.2512 C   0  0  0  0  0  0  0  0  0  0  0  0
    0.5331   -7.6964   16.2751 C   0  0  0  0  0  0  0  0  0  0  0  0
   -0.6740  -10.8737   18.0482 C   0  0  0  0  0  0  0  0  0  0  0  0
    5.6751  -10.5870   29.7637 O   0  0  0  0  0  0  0  0  0  0  0  0
    1.7612   -5.6483   26.7172 C   0  0  0  0  0  0  0  0  0  0  0  0
    0.2221   -9.8326   17.4055 C   0  0  0  0  0  0  0  0  0  0  0  0
    4.3850   -9.0730   28.6745 C   0  0  0  0  0  0  0  0  0  0  0  0
  1  7  4  0
  1 22  4  0
  2 17  4  0
  2 20  4  0
  2 28  4  0
  3  6  1  0
  3 19  1  0
  4 19  1  0
  4 26  1  0
  5 17  4  0
  5 18  4  0
  6 20  1  0
  6 26  1  0
  7 24  4  0
  8 15  4  0
  8 24  4  0
  9 14  4  0
  9 21  4  0
 10 12  4  0
 10 27  4  0
 11 12  4  0
 11 23  4  0
 13 23  4  0
 13 27  4  0
 14 20  4  0
 15 22  4  0
 16 18  4  0
 16 25  2  0
 16 28  4  0
 21 28  4  0
 24 27  1  0
M  END
$$$$

 Created by Python create_sdf_string function

 28 31  0  0  0  0  0  0  0  0999 V2000
   -1.0054  -13.0622   19.1198 C   0  0  0  0  0  0  0  0  0  0  0  0
    3.1478   -8.5360   28.5161 C   0  0  0  0  0  0  0  0  0  0  0  0
    0.5798   -7.1906   27.9330 C   0  0  0  0  0  0  0  0  0  0  0  0
    0.3978   -5.1561   26.6955 C   0  0  0  0  0  0  0  0  0  0  0  0
    2.3063  -10.0533   30.0125 C   0  0  0  0  0  0  0  0  0  0  0  0
    1.8591   -6.8254   27.4685 N   0  0  0  0  0  0  0  0  0  0  0  0
   -0.2167  -12.1055   18.5568 C   0  0  0  0  0  0  0  0  0  0  0  0
   -2.0661  -10.6994   18.1916 C   0  0  0  0  0  0  0  0  0  0  0  0
    5.2703   -7.5691   27.1123 C   0  0  0  0  0  0  0  0  0  0  0  0
    1.6204   -9.9887   17.2935 C   0  0  0  0  0  0  0  0  0  0  0  0
    1.8931   -7.9265   16.2047 C   0  0  0  0  0  0  0  0  0  0  0  0
    2.4396   -9.0801   16.7132 C   0  0  0  0  0  0  0  0  0  0  0  0
   -0.2575   -8.6234   16.8582 C   0  0  0  0  0  0  0  0  0  0  0  0
    4.0614   -7.0367   27.0106 N   0  0  0  0  0  0  0  0  0  0  0  0
   -2.9133  -11.6279   18.7578 C   0  0  0  0  0  0  0  0  0  0  0  0
    4.5688  -10.1291   29.5758 C   0  0  0  0  0  0  0  0  0  0  0  0
    2.1008   -9.0410   29.1852 N   0  0  0  0  0  0  0  0  0  0  0  0
    3.4829  -10.5697   30.2091 N   0  0  0  0  0  0  0  0  0  0  0  0
   -0.3363   -6.1172   27.5628 C   0  0  0  0  0  0  0  0  0  0  0  0
    3.0331   -7.4400   27.6362 C   0  0  0  0  0  0  0  0  0  0  0  0
    5.4553   -8.5933   27.9644 C   0  0  0  0  0  0  0  0  0  0  0  0
   -2.3870  -12.8440   19.2512 C   0  0  0  0  0  0  0  0  0  0  0  0
    0.5331   -7.6964   16.2751 C   0  0  0  0  0  0  0  0  0  0  0  0
   -0.6740  -10.8737   18.0482 C   0  0  0  0  0  0  0  0  0  0  0  0
    5.6751  -10.5870   29.7637 O   0  0  0  0  0  0  0  0  0  0  0  0
    1.7612   -5.6483   26.7172 C   0  0  0  0  0  0  0  0  0  0  0  0
    0.2221   -9.8326   17.4055 C   0  0  0  0  0  0  0  0  0  0  0  0
    4.3850   -9.0730   28.6745 C   0  0  0  0  0  0  0  0  0  0  0  0
  1  7  4  0
  1 22  4  0
  2 17  4  0
  2 20  4  0
  2 28  4  0
  3  6  1  0
  3 19  1  0
  4 19  1  0
  4 26  1  0
  5 17  4  0
  5 18  4  0
  6 20  1  0
  6 26  1  0
  7 24  4  0
  8 15  4  0
  8 24  4  0
  9 14  4  0
  9 21  4  0
 10 12  4  0
 10 27  4  0
 11 12  4  0
 11 23  4  0
 13 23  4  0
 13 27  4  0
 14 20  4  0
 15 22  4  0
 16 18  4  0
 16 25  2  0
 16 28  4  0
 21 28  4  0
 24 27  1  0
M  END
$$$$

 Created by Python create_sdf_string function

 28 31  0  0  0  0  0  0  0  0999 V2000
   -1.0054  -13.0622   19.1198 C   0  0  0  0  0  0  0  0  0  0  0  0
    3.1478   -8.5360   28.5161 C   0  0  0  0  0  0  0  0  0  0  0  0
    0.5798   -7.1906   27.9330 C   0  0  0  0  0  0  0  0  0  0  0  0
    0.3978   -5.1561   26.6955 C   0  0  0  0  0  0  0  0  0  0  0  0
    2.3063  -10.0533   30.0125 C   0  0  0  0  0  0  0  0  0  0  0  0
    1.8591   -6.8254   27.4685 N   0  0  0  0  0  0  0  0  0  0  0  0
   -0.2167  -12.1055   18.5568 C   0  0  0  0  0  0  0  0  0  0  0  0
   -2.0661  -10.6994   18.1916 C   0  0  0  0  0  0  0  0  0  0  0  0
    5.2703   -7.5691   27.1123 C   0  0  0  0  0  0  0  0  0  0  0  0
    1.6204   -9.9887   17.2935 C   0  0  0  0  0  0  0  0  0  0  0  0
    1.8931   -7.9265   16.2047 C   0  0  0  0  0  0  0  0  0  0  0  0
    2.4396   -9.0801   16.7132 C   0  0  0  0  0  0  0  0  0  0  0  0
   -0.2575   -8.6234   16.8582 C   0  0  0  0  0  0  0  0  0  0  0  0
    4.0614   -7.0367   27.0106 N   0  0  0  0  0  0  0  0  0  0  0  0
   -2.9133  -11.6279   18.7578 C   0  0  0  0  0  0  0  0  0  0  0  0
    4.5688  -10.1291   29.5758 C   0  0  0  0  0  0  0  0  0  0  0  0
    2.1008   -9.0410   29.1852 N   0  0  0  0  0  0  0  0  0  0  0  0
    3.4829  -10.5697   30.2091 N   0  0  0  0  0  0  0  0  0  0  0  0
   -0.3363   -6.1172   27.5628 C   0  0  0  0  0  0  0  0  0  0  0  0
    3.0331   -7.4400   27.6362 C   0  0  0  0  0  0  0  0  0  0  0  0
    5.4553   -8.5933   27.9644 C   0  0  0  0  0  0  0  0  0  0  0  0
   -2.3870  -12.8440   19.2512 C   0  0  0  0  0  0  0  0  0  0  0  0
    0.5331   -7.6964   16.2751 C   0  0  0  0  0  0  0  0  0  0  0  0
   -0.6740  -10.8737   18.0482 C   0  0  0  0  0  0  0  0  0  0  0  0
    5.6751  -10.5870   29.7637 O   0  0  0  0  0  0  0  0  0  0  0  0
    1.7612   -5.6483   26.7172 C   0  0  0  0  0  0  0  0  0  0  0  0
    0.2221   -9.8326   17.4055 C   0  0  0  0  0  0  0  0  0  0  0  0
    4.3850   -9.0730   28.6745 C   0  0  0  0  0  0  0  0  0  0  0  0
  1  7  4  0
  1 22  4  0
  2 17  4  0
  2 20  4  0
  2 28  4  0
  3  6  1  0
  3 19  1  0
  4 19  1  0
  4 26  1  0
  5 17  4  0
  5 18  4  0
  6 20  1  0
  6 26  1  0
  7 24  4  0
  8 15  4  0
  8 24  4  0
  9 14  4  0
  9 21  4  0
 10 12  4  0
 10 27  4  0
 11 12  4  0
 11 23  4  0
 13 23  4  0
 13 27  4  0
 14 20  4  0
 15 22  4  0
 16 18  4  0
 16 25  2  0
 16 28  4  0
 21 28  4  0
 24 27  1  0
M  END
$$$$

 Created by Python create_sdf_string function

 28 31  0  0  0  0  0  0  0  0999 V2000
   -1.0054  -13.0622   19.1198 C   0  0  0  0  0  0  0  0  0  0  0  0
    3.1478   -8.5360   28.5161 C   0  0  0  0  0  0  0  0  0  0  0  0
    0.5798   -7.1906   27.9330 C   0  0  0  0  0  0  0  0  0  0  0  0
    0.3978   -5.1561   26.6955 C   0  0  0  0  0  0  0  0  0  0  0  0
    2.3063  -10.0533   30.0125 C   0  0  0  0  0  0  0  0  0  0  0  0
    1.8591   -6.8254   27.4685 N   0  0  0  0  0  0  0  0  0  0  0  0
   -0.2167  -12.1055   18.5568 C   0  0  0  0  0  0  0  0  0  0  0  0
   -2.0661  -10.6994   18.1916 C   0  0  0  0  0  0  0  0  0  0  0  0
    5.2703   -7.5691   27.1123 C   0  0  0  0  0  0  0  0  0  0  0  0
    1.6204   -9.9887   17.2935 C   0  0  0  0  0  0  0  0  0  0  0  0
    1.8931   -7.9265   16.2047 C   0  0  0  0  0  0  0  0  0  0  0  0
    2.4396   -9.0801   16.7132 C   0  0  0  0  0  0  0  0  0  0  0  0
   -0.2575   -8.6234   16.8582 C   0  0  0  0  0  0  0  0  0  0  0  0
    4.0614   -7.0367   27.0106 N   0  0  0  0  0  0  0  0  0  0  0  0
   -2.9133  -11.6279   18.7578 C   0  0  0  0  0  0  0  0  0  0  0  0
    4.5688  -10.1291   29.5758 C   0  0  0  0  0  0  0  0  0  0  0  0
    2.1008   -9.0410   29.1852 N   0  0  0  0  0  0  0  0  0  0  0  0
    3.4829  -10.5697   30.2091 N   0  0  0  0  0  0  0  0  0  0  0  0
   -0.3363   -6.1172   27.5628 C   0  0  0  0  0  0  0  0  0  0  0  0
    3.0331   -7.4400   27.6362 C   0  0  0  0  0  0  0  0  0  0  0  0
    5.4553   -8.5933   27.9644 C   0  0  0  0  0  0  0  0  0  0  0  0
   -2.3870  -12.8440   19.2512 C   0  0  0  0  0  0  0  0  0  0  0  0
    0.5331   -7.6964   16.2751 C   0  0  0  0  0  0  0  0  0  0  0  0
   -0.6740  -10.8737   18.0482 C   0  0  0  0  0  0  0  0  0  0  0  0
    5.6751  -10.5870   29.7637 O   0  0  0  0  0  0  0  0  0  0  0  0
    1.7612   -5.6483   26.7172 C   0  0  0  0  0  0  0  0  0  0  0  0
    0.2221   -9.8326   17.4055 C   0  0  0  0  0  0  0  0  0  0  0  0
    4.3850   -9.0730   28.6745 C   0  0  0  0  0  0  0  0  0  0  0  0
  1  7  4  0
  1 22  4  0
  2 17  4  0
  2 20  4  0
  2 28  4  0
  3  6  1  0
  3 19  1  0
  4 19  1  0
  4 26  1  0
  5 17  4  0
  5 18  4  0
  6 20  1  0
  6 26  1  0
  7 24  4  0
  8 15  4  0
  8 24  4  0
  9 14  4  0
  9 21  4  0
 10 12  4  0
 10 27  4  0
 11 12  4  0
 11 23  4  0
 13 23  4  0
 13 27  4  0
 14 20  4  0
 15 22  4  0
 16 18  4  0
 16 25  2  0
 16 28  4  0
 21 28  4  0
 24 27  1  0
M  END
$$$$

 Created by Python create_sdf_string function

 28 31  0  0  0  0  0  0  0  0999 V2000
   -1.0054  -13.0622   19.1198 C   0  0  0  0  0  0  0  0  0  0  0  0
    3.1478   -8.5360   28.5161 C   0  0  0  0  0  0  0  0  0  0  0  0
    0.5798   -7.1906   27.9330 C   0  0  0  0  0  0  0  0  0  0  0  0
    0.3978   -5.1561   26.6955 C   0  0  0  0  0  0  0  0  0  0  0  0
    2.3063  -10.0533   30.0125 C   0  0  0  0  0  0  0  0  0  0  0  0
    1.8591   -6.8254   27.4685 N   0  0  0  0  0  0  0  0  0  0  0  0
   -0.2167  -12.1055   18.5568 C   0  0  0  0  0  0  0  0  0  0  0  0
   -2.0661  -10.6994   18.1916 C   0  0  0  0  0  0  0  0  0  0  0  0
    5.2703   -7.5691   27.1123 C   0  0  0  0  0  0  0  0  0  0  0  0
    1.6204   -9.9887   17.2935 C   0  0  0  0  0  0  0  0  0  0  0  0
    1.8931   -7.9265   16.2047 C   0  0  0  0  0  0  0  0  0  0  0  0
    2.4396   -9.0801   16.7132 C   0  0  0  0  0  0  0  0  0  0  0  0
   -0.2575   -8.6234   16.8582 C   0  0  0  0  0  0  0  0  0  0  0  0
    4.0614   -7.0367   27.0106 N   0  0  0  0  0  0  0  0  0  0  0  0
   -2.9133  -11.6279   18.7578 C   0  0  0  0  0  0  0  0  0  0  0  0
    4.5688  -10.1291   29.5758 C   0  0  0  0  0  0  0  0  0  0  0  0
    2.1008   -9.0410   29.1852 N   0  0  0  0  0  0  0  0  0  0  0  0
    3.4829  -10.5697   30.2091 N   0  0  0  0  0  0  0  0  0  0  0  0
   -0.3363   -6.1172   27.5628 C   0  0  0  0  0  0  0  0  0  0  0  0
    3.0331   -7.4400   27.6362 C   0  0  0  0  0  0  0  0  0  0  0  0
    5.4553   -8.5933   27.9644 C   0  0  0  0  0  0  0  0  0  0  0  0
   -2.3870  -12.8440   19.2512 C   0  0  0  0  0  0  0  0  0  0  0  0
    0.5331   -7.6964   16.2751 C   0  0  0  0  0  0  0  0  0  0  0  0
   -0.6740  -10.8737   18.0482 C   0  0  0  0  0  0  0  0  0  0  0  0
    5.6751  -10.5870   29.7637 O   0  0  0  0  0  0  0  0  0  0  0  0
    1.7612   -5.6483   26.7172 C   0  0  0  0  0  0  0  0  0  0  0  0
    0.2221   -9.8326   17.4055 C   0  0  0  0  0  0  0  0  0  0  0  0
    4.3850   -9.0730   28.6745 C   0  0  0  0  0  0  0  0  0  0  0  0
  1  7  4  0
  1 22  4  0
  2 17  4  0
  2 20  4  0
  2 28  4  0
  3  6  1  0
  3 19  1  0
  4 19  1  0
  4 26  1  0
  5 17  4  0
  5 18  4  0
  6 20  1  0
  6 26  1  0
  7 24  4  0
  8 15  4  0
  8 24  4  0
  9 14  4  0
  9 21  4  0
 10 12  4  0
 10 27  4  0
 11 12  4  0
 11 23  4  0
 13 23  4  0
 13 27  4  0
 14 20  4  0
 15 22  4  0
 16 18  4  0
 16 25  2  0
 16 28  4  0
 21 28  4  0
 24 27  1  0
M  END
$$$$

 Created by Python create_sdf_string function

 28 31  0  0  0  0  0  0  0  0999 V2000
   -1.0054  -13.0622   19.1198 C   0  0  0  0  0  0  0  0  0  0  0  0
    3.1478   -8.5360   28.5161 C   0  0  0  0  0  0  0  0  0  0  0  0
    0.5798   -7.1906   27.9330 C   0  0  0  0  0  0  0  0  0  0  0  0
    0.3978   -5.1561   26.6955 C   0  0  0  0  0  0  0  0  0  0  0  0
    2.3063  -10.0533   30.0125 C   0  0  0  0  0  0  0  0  0  0  0  0
    1.8591   -6.8254   27.4685 N   0  0  0  0  0  0  0  0  0  0  0  0
   -0.2167  -12.1055   18.5568 C   0  0  0  0  0  0  0  0  0  0  0  0
   -2.0661  -10.6994   18.1916 C   0  0  0  0  0  0  0  0  0  0  0  0
    5.2703   -7.5691   27.1123 C   0  0  0  0  0  0  0  0  0  0  0  0
    1.6204   -9.9887   17.2935 C   0  0  0  0  0  0  0  0  0  0  0  0
    1.8931   -7.9265   16.2047 C   0  0  0  0  0  0  0  0  0  0  0  0
    2.4396   -9.0801   16.7132 C   0  0  0  0  0  0  0  0  0  0  0  0
   -0.2575   -8.6234   16.8582 C   0  0  0  0  0  0  0  0  0  0  0  0
    4.0614   -7.0367   27.0106 N   0  0  0  0  0  0  0  0  0  0  0  0
   -2.9133  -11.6279   18.7578 C   0  0  0  0  0  0  0  0  0  0  0  0
    4.5688  -10.1291   29.5758 C   0  0  0  0  0  0  0  0  0  0  0  0
    2.1008   -9.0410   29.1852 N   0  0  0  0  0  0  0  0  0  0  0  0
    3.4829  -10.5697   30.2091 N   0  0  0  0  0  0  0  0  0  0  0  0
   -0.3363   -6.1172   27.5628 C   0  0  0  0  0  0  0  0  0  0  0  0
    3.0331   -7.4400   27.6362 C   0  0  0  0  0  0  0  0  0  0  0  0
    5.4553   -8.5933   27.9644 C   0  0  0  0  0  0  0  0  0  0  0  0
   -2.3870  -12.8440   19.2512 C   0  0  0  0  0  0  0  0  0  0  0  0
    0.5331   -7.6964   16.2751 C   0  0  0  0  0  0  0  0  0  0  0  0
   -0.6740  -10.8737   18.0482 C   0  0  0  0  0  0  0  0  0  0  0  0
    5.6751  -10.5870   29.7637 O   0  0  0  0  0  0  0  0  0  0  0  0
    1.7612   -5.6483   26.7172 C   0  0  0  0  0  0  0  0  0  0  0  0
    0.2221   -9.8326   17.4055 C   0  0  0  0  0  0  0  0  0  0  0  0
    4.3850   -9.0730   28.6745 C   0  0  0  0  0  0  0  0  0  0  0  0
  1  7  4  0
  1 22  4  0
  2 17  4  0
  2 20  4  0
  2 28  4  0
  3  6  1  0
  3 19  1  0
  4 19  1  0
  4 26  1  0
  5 17  4  0
  5 18  4  0
  6 20  1  0
  6 26  1  0
  7 24  4  0
  8 15  4  0
  8 24  4  0
  9 14  4  0
  9 21  4  0
 10 12  4  0
 10 27  4  0
 11 12  4  0
 11 23  4  0
 13 23  4  0
 13 27  4  0
 14 20  4  0
 15 22  4  0
 16 18  4  0
 16 25  2  0
 16 28  4  0
 21 28  4  0
 24 27  1  0
M  END
$$$$

 Created by Python create_sdf_string function

 28 31  0  0  0  0  0  0  0  0999 V2000
   -1.0054  -13.0622   19.1198 C   0  0  0  0  0  0  0  0  0  0  0  0
    3.1478   -8.5360   28.5161 C   0  0  0  0  0  0  0  0  0  0  0  0
    0.5798   -7.1906   27.9330 C   0  0  0  0  0  0  0  0  0  0  0  0
    0.3978   -5.1561   26.6955 C   0  0  0  0  0  0  0  0  0  0  0  0
    2.3063  -10.0533   30.0125 C   0  0  0  0  0  0  0  0  0  0  0  0
    1.8591   -6.8254   27.4685 N   0  0  0  0  0  0  0  0  0  0  0  0
   -0.2167  -12.1055   18.5568 C   0  0  0  0  0  0  0  0  0  0  0  0
   -2.0661  -10.6994   18.1916 C   0  0  0  0  0  0  0  0  0  0  0  0
    5.2703   -7.5691   27.1123 C   0  0  0  0  0  0  0  0  0  0  0  0
    1.6204   -9.9887   17.2935 C   0  0  0  0  0  0  0  0  0  0  0  0
    1.8931   -7.9265   16.2047 C   0  0  0  0  0  0  0  0  0  0  0  0
    2.4396   -9.0801   16.7132 C   0  0  0  0  0  0  0  0  0  0  0  0
   -0.2575   -8.6234   16.8582 C   0  0  0  0  0  0  0  0  0  0  0  0
    4.0614   -7.0367   27.0106 N   0  0  0  0  0  0  0  0  0  0  0  0
   -2.9133  -11.6279   18.7578 C   0  0  0  0  0  0  0  0  0  0  0  0
    4.5688  -10.1291   29.5758 C   0  0  0  0  0  0  0  0  0  0  0  0
    2.1008   -9.0410   29.1852 N   0  0  0  0  0  0  0  0  0  0  0  0
    3.4829  -10.5697   30.2091 N   0  0  0  0  0  0  0  0  0  0  0  0
   -0.3363   -6.1172   27.5628 C   0  0  0  0  0  0  0  0  0  0  0  0
    3.0331   -7.4400   27.6362 C   0  0  0  0  0  0  0  0  0  0  0  0
    5.4553   -8.5933   27.9644 C   0  0  0  0  0  0  0  0  0  0  0  0
   -2.3870  -12.8440   19.2512 C   0  0  0  0  0  0  0  0  0  0  0  0
    0.5331   -7.6964   16.2751 C   0  0  0  0  0  0  0  0  0  0  0  0
   -0.6740  -10.8737   18.0482 C   0  0  0  0  0  0  0  0  0  0  0  0
    5.6751  -10.5870   29.7637 O   0  0  0  0  0  0  0  0  0  0  0  0
    1.7612   -5.6483   26.7172 C   0  0  0  0  0  0  0  0  0  0  0  0
    0.2221   -9.8326   17.4055 C   0  0  0  0  0  0  0  0  0  0  0  0
    4.3850   -9.0730   28.6745 C   0  0  0  0  0  0  0  0  0  0  0  0
  1  7  4  0
  1 22  4  0
  2 17  4  0
  2 20  4  0
  2 28  4  0
  3  6  1  0
  3 19  1  0
  4 19  1  0
  4 26  1  0
  5 17  4  0
  5 18  4  0
  6 20  1  0
  6 26  1  0
  7 24  4  0
  8 15  4  0
  8 24  4  0
  9 14  4  0
  9 21  4  0
 10 12  4  0
 10 27  4  0
 11 12  4  0
 11 23  4  0
 13 23  4  0
 13 27  4  0
 14 20  4  0
 15 22  4  0
 16 18  4  0
 16 25  2  0
 16 28  4  0
 21 28  4  0
 24 27  1  0
M  END
$$$$

 Created by Python create_sdf_string function

 28 31  0  0  0  0  0  0  0  0999 V2000
   -1.0054  -13.0622   19.1198 C   0  0  0  0  0  0  0  0  0  0  0  0
    3.1478   -8.5360   28.5161 C   0  0  0  0  0  0  0  0  0  0  0  0
    0.5798   -7.1906   27.9330 C   0  0  0  0  0  0  0  0  0  0  0  0
    0.3978   -5.1561   26.6955 C   0  0  0  0  0  0  0  0  0  0  0  0
    2.3063  -10.0533   30.0125 C   0  0  0  0  0  0  0  0  0  0  0  0
    1.8591   -6.8254   27.4685 N   0  0  0  0  0  0  0  0  0  0  0  0
   -0.2167  -12.1055   18.5568 C   0  0  0  0  0  0  0  0  0  0  0  0
   -2.0661  -10.6994   18.1916 C   0  0  0  0  0  0  0  0  0  0  0  0
    5.2703   -7.5691   27.1123 C   0  0  0  0  0  0  0  0  0  0  0  0
    1.6204   -9.9887   17.2935 C   0  0  0  0  0  0  0  0  0  0  0  0
    1.8931   -7.9265   16.2047 C   0  0  0  0  0  0  0  0  0  0  0  0
    2.4396   -9.0801   16.7132 C   0  0  0  0  0  0  0  0  0  0  0  0
   -0.2575   -8.6234   16.8582 C   0  0  0  0  0  0  0  0  0  0  0  0
    4.0614   -7.0367   27.0106 N   0  0  0  0  0  0  0  0  0  0  0  0
   -2.9133  -11.6279   18.7578 C   0  0  0  0  0  0  0  0  0  0  0  0
    4.5688  -10.1291   29.5758 C   0  0  0  0  0  0  0  0  0  0  0  0
    2.1008   -9.0410   29.1852 N   0  0  0  0  0  0  0  0  0  0  0  0
    3.4829  -10.5697   30.2091 N   0  0  0  0  0  0  0  0  0  0  0  0
   -0.3363   -6.1172   27.5628 C   0  0  0  0  0  0  0  0  0  0  0  0
    3.0331   -7.4400   27.6362 C   0  0  0  0  0  0  0  0  0  0  0  0
    5.4553   -8.5933   27.9644 C   0  0  0  0  0  0  0  0  0  0  0  0
   -2.3870  -12.8440   19.2512 C   0  0  0  0  0  0  0  0  0  0  0  0
    0.5331   -7.6964   16.2751 C   0  0  0  0  0  0  0  0  0  0  0  0
   -0.6740  -10.8737   18.0482 C   0  0  0  0  0  0  0  0  0  0  0  0
    5.6751  -10.5870   29.7637 O   0  0  0  0  0  0  0  0  0  0  0  0
    1.7612   -5.6483   26.7172 C   0  0  0  0  0  0  0  0  0  0  0  0
    0.2221   -9.8326   17.4055 C   0  0  0  0  0  0  0  0  0  0  0  0
    4.3850   -9.0730   28.6745 C   0  0  0  0  0  0  0  0  0  0  0  0
  1  7  4  0
  1 22  4  0
  2 17  4  0
  2 20  4  0
  2 28  4  0
  3  6  1  0
  3 19  1  0
  4 19  1  0
  4 26  1  0
  5 17  4  0
  5 18  4  0
  6 20  1  0
  6 26  1  0
  7 24  4  0
  8 15  4  0
  8 24  4  0
  9 14  4  0
  9 21  4  0
 10 12  4  0
 10 27  4  0
 11 12  4  0
 11 23  4  0
 13 23  4  0
 13 27  4  0
 14 20  4  0
 15 22  4  0
 16 18  4  0
 16 25  2  0
 16 28  4  0
 21 28  4  0
 24 27  1  0
M  END
$$$$

 Created by Python create_sdf_string function

 28 31  0  0  0  0  0  0  0  0999 V2000
   -1.0054  -13.0622   19.1198 C   0  0  0  0  0  0  0  0  0  0  0  0
    3.1478   -8.5360   28.5161 C   0  0  0  0  0  0  0  0  0  0  0  0
    0.5798   -7.1906   27.9330 C   0  0  0  0  0  0  0  0  0  0  0  0
    0.3978   -5.1561   26.6955 C   0  0  0  0  0  0  0  0  0  0  0  0
    2.3063  -10.0533   30.0125 C   0  0  0  0  0  0  0  0  0  0  0  0
    1.8591   -6.8254   27.4685 N   0  0  0  0  0  0  0  0  0  0  0  0
   -0.2167  -12.1055   18.5568 C   0  0  0  0  0  0  0  0  0  0  0  0
   -2.0661  -10.6994   18.1916 C   0  0  0  0  0  0  0  0  0  0  0  0
    5.2703   -7.5691   27.1123 C   0  0  0  0  0  0  0  0  0  0  0  0
    1.6204   -9.9887   17.2935 C   0  0  0  0  0  0  0  0  0  0  0  0
    1.8931   -7.9265   16.2047 C   0  0  0  0  0  0  0  0  0  0  0  0
    2.4396   -9.0801   16.7132 C   0  0  0  0  0  0  0  0  0  0  0  0
   -0.2575   -8.6234   16.8582 C   0  0  0  0  0  0  0  0  0  0  0  0
    4.0614   -7.0367   27.0106 N   0  0  0  0  0  0  0  0  0  0  0  0
   -2.9133  -11.6279   18.7578 C   0  0  0  0  0  0  0  0  0  0  0  0
    4.5688  -10.1291   29.5758 C   0  0  0  0  0  0  0  0  0  0  0  0
    2.1008   -9.0410   29.1852 N   0  0  0  0  0  0  0  0  0  0  0  0
    3.4829  -10.5697   30.2091 N   0  0  0  0  0  0  0  0  0  0  0  0
   -0.3363   -6.1172   27.5628 C   0  0  0  0  0  0  0  0  0  0  0  0
    3.0331   -7.4400   27.6362 C   0  0  0  0  0  0  0  0  0  0  0  0
    5.4553   -8.5933   27.9644 C   0  0  0  0  0  0  0  0  0  0  0  0
   -2.3870  -12.8440   19.2512 C   0  0  0  0  0  0  0  0  0  0  0  0
    0.5331   -7.6964   16.2751 C   0  0  0  0  0  0  0  0  0  0  0  0
   -0.6740  -10.8737   18.0482 C   0  0  0  0  0  0  0  0  0  0  0  0
    5.6751  -10.5870   29.7637 O   0  0  0  0  0  0  0  0  0  0  0  0
    1.7612   -5.6483   26.7172 C   0  0  0  0  0  0  0  0  0  0  0  0
    0.2221   -9.8326   17.4055 C   0  0  0  0  0  0  0  0  0  0  0  0
    4.3850   -9.0730   28.6745 C   0  0  0  0  0  0  0  0  0  0  0  0
  1  7  4  0
  1 22  4  0
  2 17  4  0
  2 20  4  0
  2 28  4  0
  3  6  1  0
  3 19  1  0
  4 19  1  0
  4 26  1  0
  5 17  4  0
  5 18  4  0
  6 20  1  0
  6 26  1  0
  7 24  4  0
  8 15  4  0
  8 24  4  0
  9 14  4  0
  9 21  4  0
 10 12  4  0
 10 27  4  0
 11 12  4  0
 11 23  4  0
 13 23  4  0
 13 27  4  0
 14 20  4  0
 15 22  4  0
 16 18  4  0
 16 25  2  0
 16 28  4  0
 21 28  4  0
 24 27  1  0
M  END
$$$$

 Created by Python create_sdf_string function

 28 31  0  0  0  0  0  0  0  0999 V2000
   -1.0054  -13.0622   19.1198 C   0  0  0  0  0  0  0  0  0  0  0  0
    3.1478   -8.5360   28.5161 C   0  0  0  0  0  0  0  0  0  0  0  0
    0.5798   -7.1906   27.9330 C   0  0  0  0  0  0  0  0  0  0  0  0
    0.3978   -5.1561   26.6955 C   0  0  0  0  0  0  0  0  0  0  0  0
    2.3063  -10.0533   30.0125 C   0  0  0  0  0  0  0  0  0  0  0  0
    1.8591   -6.8254   27.4685 N   0  0  0  0  0  0  0  0  0  0  0  0
   -0.2167  -12.1055   18.5568 C   0  0  0  0  0  0  0  0  0  0  0  0
   -2.0661  -10.6994   18.1916 C   0  0  0  0  0  0  0  0  0  0  0  0
    5.2703   -7.5691   27.1123 C   0  0  0  0  0  0  0  0  0  0  0  0
    1.6204   -9.9887   17.2935 C   0  0  0  0  0  0  0  0  0  0  0  0
    1.8931   -7.9265   16.2047 C   0  0  0  0  0  0  0  0  0  0  0  0
    2.4396   -9.0801   16.7132 C   0  0  0  0  0  0  0  0  0  0  0  0
   -0.2575   -8.6234   16.8582 C   0  0  0  0  0  0  0  0  0  0  0  0
    4.0614   -7.0367   27.0106 N   0  0  0  0  0  0  0  0  0  0  0  0
   -2.9133  -11.6279   18.7578 C   0  0  0  0  0  0  0  0  0  0  0  0
    4.5688  -10.1291   29.5758 C   0  0  0  0  0  0  0  0  0  0  0  0
    2.1008   -9.0410   29.1852 N   0  0  0  0  0  0  0  0  0  0  0  0
    3.4829  -10.5697   30.2091 N   0  0  0  0  0  0  0  0  0  0  0  0
   -0.3363   -6.1172   27.5628 C   0  0  0  0  0  0  0  0  0  0  0  0
    3.0331   -7.4400   27.6362 C   0  0  0  0  0  0  0  0  0  0  0  0
    5.4553   -8.5933   27.9644 C   0  0  0  0  0  0  0  0  0  0  0  0
   -2.3870  -12.8440   19.2512 C   0  0  0  0  0  0  0  0  0  0  0  0
    0.5331   -7.6964   16.2751 C   0  0  0  0  0  0  0  0  0  0  0  0
   -0.6740  -10.8737   18.0482 C   0  0  0  0  0  0  0  0  0  0  0  0
    5.6751  -10.5870   29.7637 O   0  0  0  0  0  0  0  0  0  0  0  0
    1.7612   -5.6483   26.7172 C   0  0  0  0  0  0  0  0  0  0  0  0
    0.2221   -9.8326   17.4055 C   0  0  0  0  0  0  0  0  0  0  0  0
    4.3850   -9.0730   28.6745 C   0  0  0  0  0  0  0  0  0  0  0  0
  1  7  4  0
  1 22  4  0
  2 17  4  0
  2 20  4  0
  2 28  4  0
  3  6  1  0
  3 19  1  0
  4 19  1  0
  4 26  1  0
  5 17  4  0
  5 18  4  0
  6 20  1  0
  6 26  1  0
  7 24  4  0
  8 15  4  0
  8 24  4  0
  9 14  4  0
  9 21  4  0
 10 12  4  0
 10 27  4  0
 11 12  4  0
 11 23  4  0
 13 23  4  0
 13 27  4  0
 14 20  4  0
 15 22  4  0
 16 18  4  0
 16 25  2  0
 16 28  4  0
 21 28  4  0
 24 27  1  0
M  END
$$$$

 Created by Python create_sdf_string function

 28 31  0  0  0  0  0  0  0  0999 V2000
   -1.0054  -13.0622   19.1198 C   0  0  0  0  0  0  0  0  0  0  0  0
    3.1478   -8.5360   28.5161 C   0  0  0  0  0  0  0  0  0  0  0  0
    0.5798   -7.1906   27.9330 C   0  0  0  0  0  0  0  0  0  0  0  0
    0.3978   -5.1561   26.6955 C   0  0  0  0  0  0  0  0  0  0  0  0
    2.3063  -10.0533   30.0125 C   0  0  0  0  0  0  0  0  0  0  0  0
    1.8591   -6.8254   27.4685 N   0  0  0  0  0  0  0  0  0  0  0  0
   -0.2167  -12.1055   18.5568 C   0  0  0  0  0  0  0  0  0  0  0  0
   -2.0661  -10.6994   18.1916 C   0  0  0  0  0  0  0  0  0  0  0  0
    5.2703   -7.5691   27.1123 C   0  0  0  0  0  0  0  0  0  0  0  0
    1.6204   -9.9887   17.2935 C   0  0  0  0  0  0  0  0  0  0  0  0
    1.8931   -7.9265   16.2047 C   0  0  0  0  0  0  0  0  0  0  0  0
    2.4396   -9.0801   16.7132 C   0  0  0  0  0  0  0  0  0  0  0  0
   -0.2575   -8.6234   16.8582 C   0  0  0  0  0  0  0  0  0  0  0  0
    4.0614   -7.0367   27.0106 N   0  0  0  0  0  0  0  0  0  0  0  0
   -2.9133  -11.6279   18.7578 C   0  0  0  0  0  0  0  0  0  0  0  0
    4.5688  -10.1291   29.5758 C   0  0  0  0  0  0  0  0  0  0  0  0
    2.1008   -9.0410   29.1852 N   0  0  0  0  0  0  0  0  0  0  0  0
    3.4829  -10.5697   30.2091 N   0  0  0  0  0  0  0  0  0  0  0  0
   -0.3363   -6.1172   27.5628 C   0  0  0  0  0  0  0  0  0  0  0  0
    3.0331   -7.4400   27.6362 C   0  0  0  0  0  0  0  0  0  0  0  0
    5.4553   -8.5933   27.9644 C   0  0  0  0  0  0  0  0  0  0  0  0
   -2.3870  -12.8440   19.2512 C   0  0  0  0  0  0  0  0  0  0  0  0
    0.5331   -7.6964   16.2751 C   0  0  0  0  0  0  0  0  0  0  0  0
   -0.6740  -10.8737   18.0482 C   0  0  0  0  0  0  0  0  0  0  0  0
    5.6751  -10.5870   29.7637 O   0  0  0  0  0  0  0  0  0  0  0  0
    1.7612   -5.6483   26.7172 C   0  0  0  0  0  0  0  0  0  0  0  0
    0.2221   -9.8326   17.4055 C   0  0  0  0  0  0  0  0  0  0  0  0
    4.3850   -9.0730   28.6745 C   0  0  0  0  0  0  0  0  0  0  0  0
  1  7  4  0
  1 22  4  0
  2 17  4  0
  2 20  4  0
  2 28  4  0
  3  6  1  0
  3 19  1  0
  4 19  1  0
  4 26  1  0
  5 17  4  0
  5 18  4  0
  6 20  1  0
  6 26  1  0
  7 24  4  0
  8 15  4  0
  8 24  4  0
  9 14  4  0
  9 21  4  0
 10 12  4  0
 10 27  4  0
 11 12  4  0
 11 23  4  0
 13 23  4  0
 13 27  4  0
 14 20  4  0
 15 22  4  0
 16 18  4  0
 16 25  2  0
 16 28  4  0
 21 28  4  0
 24 27  1  0
M  END
$$$$

 Created by Python create_sdf_string function

 28 31  0  0  0  0  0  0  0  0999 V2000
   -1.0054  -13.0622   19.1198 C   0  0  0  0  0  0  0  0  0  0  0  0
    3.1478   -8.5360   28.5161 C   0  0  0  0  0  0  0  0  0  0  0  0
    0.5798   -7.1906   27.9330 C   0  0  0  0  0  0  0  0  0  0  0  0
    0.3978   -5.1561   26.6955 C   0  0  0  0  0  0  0  0  0  0  0  0
    2.3063  -10.0533   30.0125 C   0  0  0  0  0  0  0  0  0  0  0  0
    1.8591   -6.8254   27.4685 N   0  0  0  0  0  0  0  0  0  0  0  0
   -0.2167  -12.1055   18.5568 C   0  0  0  0  0  0  0  0  0  0  0  0
   -2.0661  -10.6994   18.1916 C   0  0  0  0  0  0  0  0  0  0  0  0
    5.2703   -7.5691   27.1123 C   0  0  0  0  0  0  0  0  0  0  0  0
    1.6204   -9.9887   17.2935 C   0  0  0  0  0  0  0  0  0  0  0  0
    1.8931   -7.9265   16.2047 C   0  0  0  0  0  0  0  0  0  0  0  0
    2.4396   -9.0801   16.7132 C   0  0  0  0  0  0  0  0  0  0  0  0
   -0.2575   -8.6234   16.8582 C   0  0  0  0  0  0  0  0  0  0  0  0
    4.0614   -7.0367   27.0106 N   0  0  0  0  0  0  0  0  0  0  0  0
   -2.9133  -11.6279   18.7578 C   0  0  0  0  0  0  0  0  0  0  0  0
    4.5688  -10.1291   29.5758 C   0  0  0  0  0  0  0  0  0  0  0  0
    2.1008   -9.0410   29.1852 N   0  0  0  0  0  0  0  0  0  0  0  0
    3.4829  -10.5697   30.2091 N   0  0  0  0  0  0  0  0  0  0  0  0
   -0.3363   -6.1172   27.5628 C   0  0  0  0  0  0  0  0  0  0  0  0
    3.0331   -7.4400   27.6362 C   0  0  0  0  0  0  0  0  0  0  0  0
    5.4553   -8.5933   27.9644 C   0  0  0  0  0  0  0  0  0  0  0  0
   -2.3870  -12.8440   19.2512 C   0  0  0  0  0  0  0  0  0  0  0  0
    0.5331   -7.6964   16.2751 C   0  0  0  0  0  0  0  0  0  0  0  0
   -0.6740  -10.8737   18.0482 C   0  0  0  0  0  0  0  0  0  0  0  0
    5.6751  -10.5870   29.7637 O   0  0  0  0  0  0  0  0  0  0  0  0
    1.7612   -5.6483   26.7172 C   0  0  0  0  0  0  0  0  0  0  0  0
    0.2221   -9.8326   17.4055 C   0  0  0  0  0  0  0  0  0  0  0  0
    4.3850   -9.0730   28.6745 C   0  0  0  0  0  0  0  0  0  0  0  0
  1  7  4  0
  1 22  4  0
  2 17  4  0
  2 20  4  0
  2 28  4  0
  3  6  1  0
  3 19  1  0
  4 19  1  0
  4 26  1  0
  5 17  4  0
  5 18  4  0
  6 20  1  0
  6 26  1  0
  7 24  4  0
  8 15  4  0
  8 24  4  0
  9 14  4  0
  9 21  4  0
 10 12  4  0
 10 27  4  0
 11 12  4  0
 11 23  4  0
 13 23  4  0
 13 27  4  0
 14 20  4  0
 15 22  4  0
 16 18  4  0
 16 25  2  0
 16 28  4  0
 21 28  4  0
 24 27  1  0
M  END
$$$$

 Created by Python create_sdf_string function

 28 31  0  0  0  0  0  0  0  0999 V2000
   -1.0054  -13.0622   19.1198 C   0  0  0  0  0  0  0  0  0  0  0  0
    3.1478   -8.5360   28.5161 C   0  0  0  0  0  0  0  0  0  0  0  0
    0.5798   -7.1906   27.9330 C   0  0  0  0  0  0  0  0  0  0  0  0
    0.3978   -5.1561   26.6955 C   0  0  0  0  0  0  0  0  0  0  0  0
    2.3063  -10.0533   30.0125 C   0  0  0  0  0  0  0  0  0  0  0  0
    1.8591   -6.8254   27.4685 N   0  0  0  0  0  0  0  0  0  0  0  0
   -0.2167  -12.1055   18.5568 C   0  0  0  0  0  0  0  0  0  0  0  0
   -2.0661  -10.6994   18.1916 C   0  0  0  0  0  0  0  0  0  0  0  0
    5.2703   -7.5691   27.1123 C   0  0  0  0  0  0  0  0  0  0  0  0
    1.6204   -9.9887   17.2935 C   0  0  0  0  0  0  0  0  0  0  0  0
    1.8931   -7.9265   16.2047 C   0  0  0  0  0  0  0  0  0  0  0  0
    2.4396   -9.0801   16.7132 C   0  0  0  0  0  0  0  0  0  0  0  0
   -0.2575   -8.6234   16.8582 C   0  0  0  0  0  0  0  0  0  0  0  0
    4.0614   -7.0367   27.0106 N   0  0  0  0  0  0  0  0  0  0  0  0
   -2.9133  -11.6279   18.7578 C   0  0  0  0  0  0  0  0  0  0  0  0
    4.5688  -10.1291   29.5758 C   0  0  0  0  0  0  0  0  0  0  0  0
    2.1008   -9.0410   29.1852 N   0  0  0  0  0  0  0  0  0  0  0  0
    3.4829  -10.5697   30.2091 N   0  0  0  0  0  0  0  0  0  0  0  0
   -0.3363   -6.1172   27.5628 C   0  0  0  0  0  0  0  0  0  0  0  0
    3.0331   -7.4400   27.6362 C   0  0  0  0  0  0  0  0  0  0  0  0
    5.4553   -8.5933   27.9644 C   0  0  0  0  0  0  0  0  0  0  0  0
   -2.3870  -12.8440   19.2512 C   0  0  0  0  0  0  0  0  0  0  0  0
    0.5331   -7.6964   16.2751 C   0  0  0  0  0  0  0  0  0  0  0  0
   -0.6740  -10.8737   18.0482 C   0  0  0  0  0  0  0  0  0  0  0  0
    5.6751  -10.5870   29.7637 O   0  0  0  0  0  0  0  0  0  0  0  0
    1.7612   -5.6483   26.7172 C   0  0  0  0  0  0  0  0  0  0  0  0
    0.2221   -9.8326   17.4055 C   0  0  0  0  0  0  0  0  0  0  0  0
    4.3850   -9.0730   28.6745 C   0  0  0  0  0  0  0  0  0  0  0  0
  1  7  4  0
  1 22  4  0
  2 17  4  0
  2 20  4  0
  2 28  4  0
  3  6  1  0
  3 19  1  0
  4 19  1  0
  4 26  1  0
  5 17  4  0
  5 18  4  0
  6 20  1  0
  6 26  1  0
  7 24  4  0
  8 15  4  0
  8 24  4  0
  9 14  4  0
  9 21  4  0
 10 12  4  0
 10 27  4  0
 11 12  4  0
 11 23  4  0
 13 23  4  0
 13 27  4  0
 14 20  4  0
 15 22  4  0
 16 18  4  0
 16 25  2  0
 16 28  4  0
 21 28  4  0
 24 27  1  0
M  END
$$$$

 Created by Python create_sdf_string function

 28 31  0  0  0  0  0  0  0  0999 V2000
   -1.0054  -13.0622   19.1198 C   0  0  0  0  0  0  0  0  0  0  0  0
    3.1478   -8.5360   28.5161 C   0  0  0  0  0  0  0  0  0  0  0  0
    0.5798   -7.1906   27.9330 C   0  0  0  0  0  0  0  0  0  0  0  0
    0.3978   -5.1561   26.6955 C   0  0  0  0  0  0  0  0  0  0  0  0
    2.3063  -10.0533   30.0125 C   0  0  0  0  0  0  0  0  0  0  0  0
    1.8591   -6.8254   27.4685 N   0  0  0  0  0  0  0  0  0  0  0  0
   -0.2167  -12.1055   18.5568 C   0  0  0  0  0  0  0  0  0  0  0  0
   -2.0661  -10.6994   18.1916 C   0  0  0  0  0  0  0  0  0  0  0  0
    5.2703   -7.5691   27.1123 C   0  0  0  0  0  0  0  0  0  0  0  0
    1.6204   -9.9887   17.2935 C   0  0  0  0  0  0  0  0  0  0  0  0
    1.8931   -7.9265   16.2047 C   0  0  0  0  0  0  0  0  0  0  0  0
    2.4396   -9.0801   16.7132 C   0  0  0  0  0  0  0  0  0  0  0  0
   -0.2575   -8.6234   16.8582 C   0  0  0  0  0  0  0  0  0  0  0  0
    4.0614   -7.0367   27.0106 N   0  0  0  0  0  0  0  0  0  0  0  0
   -2.9133  -11.6279   18.7578 C   0  0  0  0  0  0  0  0  0  0  0  0
    4.5688  -10.1291   29.5758 C   0  0  0  0  0  0  0  0  0  0  0  0
    2.1008   -9.0410   29.1852 N   0  0  0  0  0  0  0  0  0  0  0  0
    3.4829  -10.5697   30.2091 N   0  0  0  0  0  0  0  0  0  0  0  0
   -0.3363   -6.1172   27.5628 C   0  0  0  0  0  0  0  0  0  0  0  0
    3.0331   -7.4400   27.6362 C   0  0  0  0  0  0  0  0  0  0  0  0
    5.4553   -8.5933   27.9644 C   0  0  0  0  0  0  0  0  0  0  0  0
   -2.3870  -12.8440   19.2512 C   0  0  0  0  0  0  0  0  0  0  0  0
    0.5331   -7.6964   16.2751 C   0  0  0  0  0  0  0  0  0  0  0  0
   -0.6740  -10.8737   18.0482 C   0  0  0  0  0  0  0  0  0  0  0  0
    5.6751  -10.5870   29.7637 O   0  0  0  0  0  0  0  0  0  0  0  0
    1.7612   -5.6483   26.7172 C   0  0  0  0  0  0  0  0  0  0  0  0
    0.2221   -9.8326   17.4055 C   0  0  0  0  0  0  0  0  0  0  0  0
    4.3850   -9.0730   28.6745 C   0  0  0  0  0  0  0  0  0  0  0  0
  1  7  4  0
  1 22  4  0
  2 17  4  0
  2 20  4  0
  2 28  4  0
  3  6  1  0
  3 19  1  0
  4 19  1  0
  4 26  1  0
  5 17  4  0
  5 18  4  0
  6 20  1  0
  6 26  1  0
  7 24  4  0
  8 15  4  0
  8 24  4  0
  9 14  4  0
  9 21  4  0
 10 12  4  0
 10 27  4  0
 11 12  4  0
 11 23  4  0
 13 23  4  0
 13 27  4  0
 14 20  4  0
 15 22  4  0
 16 18  4  0
 16 25  2  0
 16 28  4  0
 21 28  4  0
 24 27  1  0
M  END
$$$$

 Created by Python create_sdf_string function

 28 31  0  0  0  0  0  0  0  0999 V2000
   -1.0054  -13.0622   19.1198 C   0  0  0  0  0  0  0  0  0  0  0  0
    3.1478   -8.5360   28.5161 C   0  0  0  0  0  0  0  0  0  0  0  0
    0.5798   -7.1906   27.9330 C   0  0  0  0  0  0  0  0  0  0  0  0
    0.3978   -5.1561   26.6955 C   0  0  0  0  0  0  0  0  0  0  0  0
    2.3063  -10.0533   30.0125 C   0  0  0  0  0  0  0  0  0  0  0  0
    1.8591   -6.8254   27.4685 N   0  0  0  0  0  0  0  0  0  0  0  0
   -0.2167  -12.1055   18.5568 C   0  0  0  0  0  0  0  0  0  0  0  0
   -2.0661  -10.6994   18.1916 C   0  0  0  0  0  0  0  0  0  0  0  0
    5.2703   -7.5691   27.1123 C   0  0  0  0  0  0  0  0  0  0  0  0
    1.6204   -9.9887   17.2935 C   0  0  0  0  0  0  0  0  0  0  0  0
    1.8931   -7.9265   16.2047 C   0  0  0  0  0  0  0  0  0  0  0  0
    2.4396   -9.0801   16.7132 C   0  0  0  0  0  0  0  0  0  0  0  0
   -0.2575   -8.6234   16.8582 C   0  0  0  0  0  0  0  0  0  0  0  0
    4.0614   -7.0367   27.0106 N   0  0  0  0  0  0  0  0  0  0  0  0
   -2.9133  -11.6279   18.7578 C   0  0  0  0  0  0  0  0  0  0  0  0
    4.5688  -10.1291   29.5758 C   0  0  0  0  0  0  0  0  0  0  0  0
    2.1008   -9.0410   29.1852 N   0  0  0  0  0  0  0  0  0  0  0  0
    3.4829  -10.5697   30.2091 N   0  0  0  0  0  0  0  0  0  0  0  0
   -0.3363   -6.1172   27.5628 C   0  0  0  0  0  0  0  0  0  0  0  0
    3.0331   -7.4400   27.6362 C   0  0  0  0  0  0  0  0  0  0  0  0
    5.4553   -8.5933   27.9644 C   0  0  0  0  0  0  0  0  0  0  0  0
   -2.3870  -12.8440   19.2512 C   0  0  0  0  0  0  0  0  0  0  0  0
    0.5331   -7.6964   16.2751 C   0  0  0  0  0  0  0  0  0  0  0  0
   -0.6740  -10.8737   18.0482 C   0  0  0  0  0  0  0  0  0  0  0  0
    5.6751  -10.5870   29.7637 O   0  0  0  0  0  0  0  0  0  0  0  0
    1.7612   -5.6483   26.7172 C   0  0  0  0  0  0  0  0  0  0  0  0
    0.2221   -9.8326   17.4055 C   0  0  0  0  0  0  0  0  0  0  0  0
    4.3850   -9.0730   28.6745 C   0  0  0  0  0  0  0  0  0  0  0  0
  1  7  4  0
  1 22  4  0
  2 17  4  0
  2 20  4  0
  2 28  4  0
  3  6  1  0
  3 19  1  0
  4 19  1  0
  4 26  1  0
  5 17  4  0
  5 18  4  0
  6 20  1  0
  6 26  1  0
  7 24  4  0
  8 15  4  0
  8 24  4  0
  9 14  4  0
  9 21  4  0
 10 12  4  0
 10 27  4  0
 11 12  4  0
 11 23  4  0
 13 23  4  0
 13 27  4  0
 14 20  4  0
 15 22  4  0
 16 18  4  0
 16 25  2  0
 16 28  4  0
 21 28  4  0
 24 27  1  0
M  END
$$$$

 Created by Python create_sdf_string function

 28 31  0  0  0  0  0  0  0  0999 V2000
   -1.0054  -13.0622   19.1198 C   0  0  0  0  0  0  0  0  0  0  0  0
    3.1478   -8.5360   28.5161 C   0  0  0  0  0  0  0  0  0  0  0  0
    0.5798   -7.1906   27.9330 C   0  0  0  0  0  0  0  0  0  0  0  0
    0.3978   -5.1561   26.6955 C   0  0  0  0  0  0  0  0  0  0  0  0
    2.3063  -10.0533   30.0125 C   0  0  0  0  0  0  0  0  0  0  0  0
    1.8591   -6.8254   27.4685 N   0  0  0  0  0  0  0  0  0  0  0  0
   -0.2167  -12.1055   18.5568 C   0  0  0  0  0  0  0  0  0  0  0  0
   -2.0661  -10.6994   18.1916 C   0  0  0  0  0  0  0  0  0  0  0  0
    5.2703   -7.5691   27.1123 C   0  0  0  0  0  0  0  0  0  0  0  0
    1.6204   -9.9887   17.2935 C   0  0  0  0  0  0  0  0  0  0  0  0
    1.8931   -7.9265   16.2047 C   0  0  0  0  0  0  0  0  0  0  0  0
    2.4396   -9.0801   16.7132 C   0  0  0  0  0  0  0  0  0  0  0  0
   -0.2575   -8.6234   16.8582 C   0  0  0  0  0  0  0  0  0  0  0  0
    4.0614   -7.0367   27.0106 N   0  0  0  0  0  0  0  0  0  0  0  0
   -2.9133  -11.6279   18.7578 C   0  0  0  0  0  0  0  0  0  0  0  0
    4.5688  -10.1291   29.5758 C   0  0  0  0  0  0  0  0  0  0  0  0
    2.1008   -9.0410   29.1852 N   0  0  0  0  0  0  0  0  0  0  0  0
    3.4829  -10.5697   30.2091 N   0  0  0  0  0  0  0  0  0  0  0  0
   -0.3363   -6.1172   27.5628 C   0  0  0  0  0  0  0  0  0  0  0  0
    3.0331   -7.4400   27.6362 C   0  0  0  0  0  0  0  0  0  0  0  0
    5.4553   -8.5933   27.9644 C   0  0  0  0  0  0  0  0  0  0  0  0
   -2.3870  -12.8440   19.2512 C   0  0  0  0  0  0  0  0  0  0  0  0
    0.5331   -7.6964   16.2751 C   0  0  0  0  0  0  0  0  0  0  0  0
   -0.6740  -10.8737   18.0482 C   0  0  0  0  0  0  0  0  0  0  0  0
    5.6751  -10.5870   29.7637 O   0  0  0  0  0  0  0  0  0  0  0  0
    1.7612   -5.6483   26.7172 C   0  0  0  0  0  0  0  0  0  0  0  0
    0.2221   -9.8326   17.4055 C   0  0  0  0  0  0  0  0  0  0  0  0
    4.3850   -9.0730   28.6745 C   0  0  0  0  0  0  0  0  0  0  0  0
  1  7  4  0
  1 22  4  0
  2 17  4  0
  2 20  4  0
  2 28  4  0
  3  6  1  0
  3 19  1  0
  4 19  1  0
  4 26  1  0
  5 17  4  0
  5 18  4  0
  6 20  1  0
  6 26  1  0
  7 24  4  0
  8 15  4  0
  8 24  4  0
  9 14  4  0
  9 21  4  0
 10 12  4  0
 10 27  4  0
 11 12  4  0
 11 23  4  0
 13 23  4  0
 13 27  4  0
 14 20  4  0
 15 22  4  0
 16 18  4  0
 16 25  2  0
 16 28  4  0
 21 28  4  0
 24 27  1  0
M  END
$$$$

 Created by Python create_sdf_string function

 28 31  0  0  0  0  0  0  0  0999 V2000
   -1.0054  -13.0622   19.1198 C   0  0  0  0  0  0  0  0  0  0  0  0
    3.1478   -8.5360   28.5161 C   0  0  0  0  0  0  0  0  0  0  0  0
    0.5798   -7.1906   27.9330 C   0  0  0  0  0  0  0  0  0  0  0  0
    0.3978   -5.1561   26.6955 C   0  0  0  0  0  0  0  0  0  0  0  0
    2.3063  -10.0533   30.0125 C   0  0  0  0  0  0  0  0  0  0  0  0
    1.8591   -6.8254   27.4685 N   0  0  0  0  0  0  0  0  0  0  0  0
   -0.2167  -12.1055   18.5568 C   0  0  0  0  0  0  0  0  0  0  0  0
   -2.0661  -10.6994   18.1916 C   0  0  0  0  0  0  0  0  0  0  0  0
    5.2703   -7.5691   27.1123 C   0  0  0  0  0  0  0  0  0  0  0  0
    1.6204   -9.9887   17.2935 C   0  0  0  0  0  0  0  0  0  0  0  0
    1.8931   -7.9265   16.2047 C   0  0  0  0  0  0  0  0  0  0  0  0
    2.4396   -9.0801   16.7132 C   0  0  0  0  0  0  0  0  0  0  0  0
   -0.2575   -8.6234   16.8582 C   0  0  0  0  0  0  0  0  0  0  0  0
    4.0614   -7.0367   27.0106 N   0  0  0  0  0  0  0  0  0  0  0  0
   -2.9133  -11.6279   18.7578 C   0  0  0  0  0  0  0  0  0  0  0  0
    4.5688  -10.1291   29.5758 C   0  0  0  0  0  0  0  0  0  0  0  0
    2.1008   -9.0410   29.1852 N   0  0  0  0  0  0  0  0  0  0  0  0
    3.4829  -10.5697   30.2091 N   0  0  0  0  0  0  0  0  0  0  0  0
   -0.3363   -6.1172   27.5628 C   0  0  0  0  0  0  0  0  0  0  0  0
    3.0331   -7.4400   27.6362 C   0  0  0  0  0  0  0  0  0  0  0  0
    5.4553   -8.5933   27.9644 C   0  0  0  0  0  0  0  0  0  0  0  0
   -2.3870  -12.8440   19.2512 C   0  0  0  0  0  0  0  0  0  0  0  0
    0.5331   -7.6964   16.2751 C   0  0  0  0  0  0  0  0  0  0  0  0
   -0.6740  -10.8737   18.0482 C   0  0  0  0  0  0  0  0  0  0  0  0
    5.6751  -10.5870   29.7637 O   0  0  0  0  0  0  0  0  0  0  0  0
    1.7612   -5.6483   26.7172 C   0  0  0  0  0  0  0  0  0  0  0  0
    0.2221   -9.8326   17.4055 C   0  0  0  0  0  0  0  0  0  0  0  0
    4.3850   -9.0730   28.6745 C   0  0  0  0  0  0  0  0  0  0  0  0
  1  7  4  0
  1 22  4  0
  2 17  4  0
  2 20  4  0
  2 28  4  0
  3  6  1  0
  3 19  1  0
  4 19  1  0
  4 26  1  0
  5 17  4  0
  5 18  4  0
  6 20  1  0
  6 26  1  0
  7 24  4  0
  8 15  4  0
  8 24  4  0
  9 14  4  0
  9 21  4  0
 10 12  4  0
 10 27  4  0
 11 12  4  0
 11 23  4  0
 13 23  4  0
 13 27  4  0
 14 20  4  0
 15 22  4  0
 16 18  4  0
 16 25  2  0
 16 28  4  0
 21 28  4  0
 24 27  1  0
M  END
$$$$

 Created by Python create_sdf_string function

 28 31  0  0  0  0  0  0  0  0999 V2000
   -1.0054  -13.0622   19.1198 C   0  0  0  0  0  0  0  0  0  0  0  0
    3.1478   -8.5360   28.5161 C   0  0  0  0  0  0  0  0  0  0  0  0
    0.5798   -7.1906   27.9330 C   0  0  0  0  0  0  0  0  0  0  0  0
    0.3978   -5.1561   26.6955 C   0  0  0  0  0  0  0  0  0  0  0  0
    2.3063  -10.0533   30.0125 C   0  0  0  0  0  0  0  0  0  0  0  0
    1.8591   -6.8254   27.4685 N   0  0  0  0  0  0  0  0  0  0  0  0
   -0.2167  -12.1055   18.5568 C   0  0  0  0  0  0  0  0  0  0  0  0
   -2.0661  -10.6994   18.1916 C   0  0  0  0  0  0  0  0  0  0  0  0
    5.2703   -7.5691   27.1123 C   0  0  0  0  0  0  0  0  0  0  0  0
    1.6204   -9.9887   17.2935 C   0  0  0  0  0  0  0  0  0  0  0  0
    1.8931   -7.9265   16.2047 C   0  0  0  0  0  0  0  0  0  0  0  0
    2.4396   -9.0801   16.7132 C   0  0  0  0  0  0  0  0  0  0  0  0
   -0.2575   -8.6234   16.8582 C   0  0  0  0  0  0  0  0  0  0  0  0
    4.0614   -7.0367   27.0106 N   0  0  0  0  0  0  0  0  0  0  0  0
   -2.9133  -11.6279   18.7578 C   0  0  0  0  0  0  0  0  0  0  0  0
    4.5688  -10.1291   29.5758 C   0  0  0  0  0  0  0  0  0  0  0  0
    2.1008   -9.0410   29.1852 N   0  0  0  0  0  0  0  0  0  0  0  0
    3.4829  -10.5697   30.2091 N   0  0  0  0  0  0  0  0  0  0  0  0
   -0.3363   -6.1172   27.5628 C   0  0  0  0  0  0  0  0  0  0  0  0
    3.0331   -7.4400   27.6362 C   0  0  0  0  0  0  0  0  0  0  0  0
    5.4553   -8.5933   27.9644 C   0  0  0  0  0  0  0  0  0  0  0  0
   -2.3870  -12.8440   19.2512 C   0  0  0  0  0  0  0  0  0  0  0  0
    0.5331   -7.6964   16.2751 C   0  0  0  0  0  0  0  0  0  0  0  0
   -0.6740  -10.8737   18.0482 C   0  0  0  0  0  0  0  0  0  0  0  0
    5.6751  -10.5870   29.7637 O   0  0  0  0  0  0  0  0  0  0  0  0
    1.7612   -5.6483   26.7172 C   0  0  0  0  0  0  0  0  0  0  0  0
    0.2221   -9.8326   17.4055 C   0  0  0  0  0  0  0  0  0  0  0  0
    4.3850   -9.0730   28.6745 C   0  0  0  0  0  0  0  0  0  0  0  0
  1  7  4  0
  1 22  4  0
  2 17  4  0
  2 20  4  0
  2 28  4  0
  3  6  1  0
  3 19  1  0
  4 19  1  0
  4 26  1  0
  5 17  4  0
  5 18  4  0
  6 20  1  0
  6 26  1  0
  7 24  4  0
  8 15  4  0
  8 24  4  0
  9 14  4  0
  9 21  4  0
 10 12  4  0
 10 27  4  0
 11 12  4  0
 11 23  4  0
 13 23  4  0
 13 27  4  0
 14 20  4  0
 15 22  4  0
 16 18  4  0
 16 25  2  0
 16 28  4  0
 21 28  4  0
 24 27  1  0
M  END
$$$$

 Created by Python create_sdf_string function

 28 31  0  0  0  0  0  0  0  0999 V2000
   -1.0054  -13.0622   19.1198 C   0  0  0  0  0  0  0  0  0  0  0  0
    3.1478   -8.5360   28.5161 C   0  0  0  0  0  0  0  0  0  0  0  0
    0.5798   -7.1906   27.9330 C   0  0  0  0  0  0  0  0  0  0  0  0
    0.3978   -5.1561   26.6955 C   0  0  0  0  0  0  0  0  0  0  0  0
    2.3063  -10.0533   30.0125 C   0  0  0  0  0  0  0  0  0  0  0  0
    1.8591   -6.8254   27.4685 N   0  0  0  0  0  0  0  0  0  0  0  0
   -0.2167  -12.1055   18.5568 C   0  0  0  0  0  0  0  0  0  0  0  0
   -2.0661  -10.6994   18.1916 C   0  0  0  0  0  0  0  0  0  0  0  0
    5.2703   -7.5691   27.1123 C   0  0  0  0  0  0  0  0  0  0  0  0
    1.6204   -9.9887   17.2935 C   0  0  0  0  0  0  0  0  0  0  0  0
    1.8931   -7.9265   16.2047 C   0  0  0  0  0  0  0  0  0  0  0  0
    2.4396   -9.0801   16.7132 C   0  0  0  0  0  0  0  0  0  0  0  0
   -0.2575   -8.6234   16.8582 C   0  0  0  0  0  0  0  0  0  0  0  0
    4.0614   -7.0367   27.0106 N   0  0  0  0  0  0  0  0  0  0  0  0
   -2.9133  -11.6279   18.7578 C   0  0  0  0  0  0  0  0  0  0  0  0
    4.5688  -10.1291   29.5758 C   0  0  0  0  0  0  0  0  0  0  0  0
    2.1008   -9.0410   29.1852 N   0  0  0  0  0  0  0  0  0  0  0  0
    3.4829  -10.5697   30.2091 N   0  0  0  0  0  0  0  0  0  0  0  0
   -0.3363   -6.1172   27.5628 C   0  0  0  0  0  0  0  0  0  0  0  0
    3.0331   -7.4400   27.6362 C   0  0  0  0  0  0  0  0  0  0  0  0
    5.4553   -8.5933   27.9644 C   0  0  0  0  0  0  0  0  0  0  0  0
   -2.3870  -12.8440   19.2512 C   0  0  0  0  0  0  0  0  0  0  0  0
    0.5331   -7.6964   16.2751 C   0  0  0  0  0  0  0  0  0  0  0  0
   -0.6740  -10.8737   18.0482 C   0  0  0  0  0  0  0  0  0  0  0  0
    5.6751  -10.5870   29.7637 O   0  0  0  0  0  0  0  0  0  0  0  0
    1.7612   -5.6483   26.7172 C   0  0  0  0  0  0  0  0  0  0  0  0
    0.2221   -9.8326   17.4055 C   0  0  0  0  0  0  0  0  0  0  0  0
    4.3850   -9.0730   28.6745 C   0  0  0  0  0  0  0  0  0  0  0  0
  1  7  4  0
  1 22  4  0
  2 17  4  0
  2 20  4  0
  2 28  4  0
  3  6  1  0
  3 19  1  0
  4 19  1  0
  4 26  1  0
  5 17  4  0
  5 18  4  0
  6 20  1  0
  6 26  1  0
  7 24  4  0
  8 15  4  0
  8 24  4  0
  9 14  4  0
  9 21  4  0
 10 12  4  0
 10 27  4  0
 11 12  4  0
 11 23  4  0
 13 23  4  0
 13 27  4  0
 14 20  4  0
 15 22  4  0
 16 18  4  0
 16 25  2  0
 16 28  4  0
 21 28  4  0
 24 27  1  0
M  END
$$$$

 Created by Python create_sdf_string function

 28 31  0  0  0  0  0  0  0  0999 V2000
   -1.0054  -13.0622   19.1198 C   0  0  0  0  0  0  0  0  0  0  0  0
    3.1478   -8.5360   28.5161 C   0  0  0  0  0  0  0  0  0  0  0  0
    0.5798   -7.1906   27.9330 C   0  0  0  0  0  0  0  0  0  0  0  0
    0.3978   -5.1561   26.6955 C   0  0  0  0  0  0  0  0  0  0  0  0
    2.3063  -10.0533   30.0125 C   0  0  0  0  0  0  0  0  0  0  0  0
    1.8591   -6.8254   27.4685 N   0  0  0  0  0  0  0  0  0  0  0  0
   -0.2167  -12.1055   18.5568 C   0  0  0  0  0  0  0  0  0  0  0  0
   -2.0661  -10.6994   18.1916 C   0  0  0  0  0  0  0  0  0  0  0  0
    5.2703   -7.5691   27.1123 C   0  0  0  0  0  0  0  0  0  0  0  0
    1.6204   -9.9887   17.2935 C   0  0  0  0  0  0  0  0  0  0  0  0
    1.8931   -7.9265   16.2047 C   0  0  0  0  0  0  0  0  0  0  0  0
    2.4396   -9.0801   16.7132 C   0  0  0  0  0  0  0  0  0  0  0  0
   -0.2575   -8.6234   16.8582 C   0  0  0  0  0  0  0  0  0  0  0  0
    4.0614   -7.0367   27.0106 N   0  0  0  0  0  0  0  0  0  0  0  0
   -2.9133  -11.6279   18.7578 C   0  0  0  0  0  0  0  0  0  0  0  0
    4.5688  -10.1291   29.5758 C   0  0  0  0  0  0  0  0  0  0  0  0
    2.1008   -9.0410   29.1852 N   0  0  0  0  0  0  0  0  0  0  0  0
    3.4829  -10.5697   30.2091 N   0  0  0  0  0  0  0  0  0  0  0  0
   -0.3363   -6.1172   27.5628 C   0  0  0  0  0  0  0  0  0  0  0  0
    3.0331   -7.4400   27.6362 C   0  0  0  0  0  0  0  0  0  0  0  0
    5.4553   -8.5933   27.9644 C   0  0  0  0  0  0  0  0  0  0  0  0
   -2.3870  -12.8440   19.2512 C   0  0  0  0  0  0  0  0  0  0  0  0
    0.5331   -7.6964   16.2751 C   0  0  0  0  0  0  0  0  0  0  0  0
   -0.6740  -10.8737   18.0482 C   0  0  0  0  0  0  0  0  0  0  0  0
    5.6751  -10.5870   29.7637 O   0  0  0  0  0  0  0  0  0  0  0  0
    1.7612   -5.6483   26.7172 C   0  0  0  0  0  0  0  0  0  0  0  0
    0.2221   -9.8326   17.4055 C   0  0  0  0  0  0  0  0  0  0  0  0
    4.3850   -9.0730   28.6745 C   0  0  0  0  0  0  0  0  0  0  0  0
  1  7  4  0
  1 22  4  0
  2 17  4  0
  2 20  4  0
  2 28  4  0
  3  6  1  0
  3 19  1  0
  4 19  1  0
  4 26  1  0
  5 17  4  0
  5 18  4  0
  6 20  1  0
  6 26  1  0
  7 24  4  0
  8 15  4  0
  8 24  4  0
  9 14  4  0
  9 21  4  0
 10 12  4  0
 10 27  4  0
 11 12  4  0
 11 23  4  0
 13 23  4  0
 13 27  4  0
 14 20  4  0
 15 22  4  0
 16 18  4  0
 16 25  2  0
 16 28  4  0
 21 28  4  0
 24 27  1  0
M  END
$$$$

 Created by Python create_sdf_string function

 28 31  0  0  0  0  0  0  0  0999 V2000
   -1.0054  -13.0622   19.1198 C   0  0  0  0  0  0  0  0  0  0  0  0
    3.1478   -8.5360   28.5161 C   0  0  0  0  0  0  0  0  0  0  0  0
    0.5798   -7.1906   27.9330 C   0  0  0  0  0  0  0  0  0  0  0  0
    0.3978   -5.1561   26.6955 C   0  0  0  0  0  0  0  0  0  0  0  0
    2.3063  -10.0533   30.0125 C   0  0  0  0  0  0  0  0  0  0  0  0
    1.8591   -6.8254   27.4685 N   0  0  0  0  0  0  0  0  0  0  0  0
   -0.2167  -12.1055   18.5568 C   0  0  0  0  0  0  0  0  0  0  0  0
   -2.0661  -10.6994   18.1916 C   0  0  0  0  0  0  0  0  0  0  0  0
    5.2703   -7.5691   27.1123 C   0  0  0  0  0  0  0  0  0  0  0  0
    1.6204   -9.9887   17.2935 C   0  0  0  0  0  0  0  0  0  0  0  0
    1.8931   -7.9265   16.2047 C   0  0  0  0  0  0  0  0  0  0  0  0
    2.4396   -9.0801   16.7132 C   0  0  0  0  0  0  0  0  0  0  0  0
   -0.2575   -8.6234   16.8582 C   0  0  0  0  0  0  0  0  0  0  0  0
    4.0614   -7.0367   27.0106 N   0  0  0  0  0  0  0  0  0  0  0  0
   -2.9133  -11.6279   18.7578 C   0  0  0  0  0  0  0  0  0  0  0  0
    4.5688  -10.1291   29.5758 C   0  0  0  0  0  0  0  0  0  0  0  0
    2.1008   -9.0410   29.1852 N   0  0  0  0  0  0  0  0  0  0  0  0
    3.4829  -10.5697   30.2091 N   0  0  0  0  0  0  0  0  0  0  0  0
   -0.3363   -6.1172   27.5628 C   0  0  0  0  0  0  0  0  0  0  0  0
    3.0331   -7.4400   27.6362 C   0  0  0  0  0  0  0  0  0  0  0  0
    5.4553   -8.5933   27.9644 C   0  0  0  0  0  0  0  0  0  0  0  0
   -2.3870  -12.8440   19.2512 C   0  0  0  0  0  0  0  0  0  0  0  0
    0.5331   -7.6964   16.2751 C   0  0  0  0  0  0  0  0  0  0  0  0
   -0.6740  -10.8737   18.0482 C   0  0  0  0  0  0  0  0  0  0  0  0
    5.6751  -10.5870   29.7637 O   0  0  0  0  0  0  0  0  0  0  0  0
    1.7612   -5.6483   26.7172 C   0  0  0  0  0  0  0  0  0  0  0  0
    0.2221   -9.8326   17.4055 C   0  0  0  0  0  0  0  0  0  0  0  0
    4.3850   -9.0730   28.6745 C   0  0  0  0  0  0  0  0  0  0  0  0
  1  7  4  0
  1 22  4  0
  2 17  4  0
  2 20  4  0
  2 28  4  0
  3  6  1  0
  3 19  1  0
  4 19  1  0
  4 26  1  0
  5 17  4  0
  5 18  4  0
  6 20  1  0
  6 26  1  0
  7 24  4  0
  8 15  4  0
  8 24  4  0
  9 14  4  0
  9 21  4  0
 10 12  4  0
 10 27  4  0
 11 12  4  0
 11 23  4  0
 13 23  4  0
 13 27  4  0
 14 20  4  0
 15 22  4  0
 16 18  4  0
 16 25  2  0
 16 28  4  0
 21 28  4  0
 24 27  1  0
M  END
$$$$

 Created by Python create_sdf_string function

 28 31  0  0  0  0  0  0  0  0999 V2000
   -1.0054  -13.0622   19.1198 C   0  0  0  0  0  0  0  0  0  0  0  0
    3.1478   -8.5360   28.5161 C   0  0  0  0  0  0  0  0  0  0  0  0
    0.5798   -7.1906   27.9330 C   0  0  0  0  0  0  0  0  0  0  0  0
    0.3978   -5.1561   26.6955 C   0  0  0  0  0  0  0  0  0  0  0  0
    2.3063  -10.0533   30.0125 C   0  0  0  0  0  0  0  0  0  0  0  0
    1.8591   -6.8254   27.4685 N   0  0  0  0  0  0  0  0  0  0  0  0
   -0.2167  -12.1055   18.5568 C   0  0  0  0  0  0  0  0  0  0  0  0
   -2.0661  -10.6994   18.1916 C   0  0  0  0  0  0  0  0  0  0  0  0
    5.2703   -7.5691   27.1123 C   0  0  0  0  0  0  0  0  0  0  0  0
    1.6204   -9.9887   17.2935 C   0  0  0  0  0  0  0  0  0  0  0  0
    1.8931   -7.9265   16.2047 C   0  0  0  0  0  0  0  0  0  0  0  0
    2.4396   -9.0801   16.7132 C   0  0  0  0  0  0  0  0  0  0  0  0
   -0.2575   -8.6234   16.8582 C   0  0  0  0  0  0  0  0  0  0  0  0
    4.0614   -7.0367   27.0106 N   0  0  0  0  0  0  0  0  0  0  0  0
   -2.9133  -11.6279   18.7578 C   0  0  0  0  0  0  0  0  0  0  0  0
    4.5688  -10.1291   29.5758 C   0  0  0  0  0  0  0  0  0  0  0  0
    2.1008   -9.0410   29.1852 N   0  0  0  0  0  0  0  0  0  0  0  0
    3.4829  -10.5697   30.2091 N   0  0  0  0  0  0  0  0  0  0  0  0
   -0.3363   -6.1172   27.5628 C   0  0  0  0  0  0  0  0  0  0  0  0
    3.0331   -7.4400   27.6362 C   0  0  0  0  0  0  0  0  0  0  0  0
    5.4553   -8.5933   27.9644 C   0  0  0  0  0  0  0  0  0  0  0  0
   -2.3870  -12.8440   19.2512 C   0  0  0  0  0  0  0  0  0  0  0  0
    0.5331   -7.6964   16.2751 C   0  0  0  0  0  0  0  0  0  0  0  0
   -0.6740  -10.8737   18.0482 C   0  0  0  0  0  0  0  0  0  0  0  0
    5.6751  -10.5870   29.7637 O   0  0  0  0  0  0  0  0  0  0  0  0
    1.7612   -5.6483   26.7172 C   0  0  0  0  0  0  0  0  0  0  0  0
    0.2221   -9.8326   17.4055 C   0  0  0  0  0  0  0  0  0  0  0  0
    4.3850   -9.0730   28.6745 C   0  0  0  0  0  0  0  0  0  0  0  0
  1  7  4  0
  1 22  4  0
  2 17  4  0
  2 20  4  0
  2 28  4  0
  3  6  1  0
  3 19  1  0
  4 19  1  0
  4 26  1  0
  5 17  4  0
  5 18  4  0
  6 20  1  0
  6 26  1  0
  7 24  4  0
  8 15  4  0
  8 24  4  0
  9 14  4  0
  9 21  4  0
 10 12  4  0
 10 27  4  0
 11 12  4  0
 11 23  4  0
 13 23  4  0
 13 27  4  0
 14 20  4  0
 15 22  4  0
 16 18  4  0
 16 25  2  0
 16 28  4  0
 21 28  4  0
 24 27  1  0
M  END
$$$$

 Created by Python create_sdf_string function

 28 31  0  0  0  0  0  0  0  0999 V2000
   -1.0054  -13.0622   19.1198 C   0  0  0  0  0  0  0  0  0  0  0  0
    3.1478   -8.5360   28.5161 C   0  0  0  0  0  0  0  0  0  0  0  0
    0.5798   -7.1906   27.9330 C   0  0  0  0  0  0  0  0  0  0  0  0
    0.3978   -5.1561   26.6955 C   0  0  0  0  0  0  0  0  0  0  0  0
    2.3063  -10.0533   30.0125 C   0  0  0  0  0  0  0  0  0  0  0  0
    1.8591   -6.8254   27.4685 N   0  0  0  0  0  0  0  0  0  0  0  0
   -0.2167  -12.1055   18.5568 C   0  0  0  0  0  0  0  0  0  0  0  0
   -2.0661  -10.6994   18.1916 C   0  0  0  0  0  0  0  0  0  0  0  0
    5.2703   -7.5691   27.1123 C   0  0  0  0  0  0  0  0  0  0  0  0
    1.6204   -9.9887   17.2935 C   0  0  0  0  0  0  0  0  0  0  0  0
    1.8931   -7.9265   16.2047 C   0  0  0  0  0  0  0  0  0  0  0  0
    2.4396   -9.0801   16.7132 C   0  0  0  0  0  0  0  0  0  0  0  0
   -0.2575   -8.6234   16.8582 C   0  0  0  0  0  0  0  0  0  0  0  0
    4.0614   -7.0367   27.0106 N   0  0  0  0  0  0  0  0  0  0  0  0
   -2.9133  -11.6279   18.7578 C   0  0  0  0  0  0  0  0  0  0  0  0
    4.5688  -10.1291   29.5758 C   0  0  0  0  0  0  0  0  0  0  0  0
    2.1008   -9.0410   29.1852 N   0  0  0  0  0  0  0  0  0  0  0  0
    3.4829  -10.5697   30.2091 N   0  0  0  0  0  0  0  0  0  0  0  0
   -0.3363   -6.1172   27.5628 C   0  0  0  0  0  0  0  0  0  0  0  0
    3.0331   -7.4400   27.6362 C   0  0  0  0  0  0  0  0  0  0  0  0
    5.4553   -8.5933   27.9644 C   0  0  0  0  0  0  0  0  0  0  0  0
   -2.3870  -12.8440   19.2512 C   0  0  0  0  0  0  0  0  0  0  0  0
    0.5331   -7.6964   16.2751 C   0  0  0  0  0  0  0  0  0  0  0  0
   -0.6740  -10.8737   18.0482 C   0  0  0  0  0  0  0  0  0  0  0  0
    5.6751  -10.5870   29.7637 O   0  0  0  0  0  0  0  0  0  0  0  0
    1.7612   -5.6483   26.7172 C   0  0  0  0  0  0  0  0  0  0  0  0
    0.2221   -9.8326   17.4055 C   0  0  0  0  0  0  0  0  0  0  0  0
    4.3850   -9.0730   28.6745 C   0  0  0  0  0  0  0  0  0  0  0  0
  1  7  4  0
  1 22  4  0
  2 17  4  0
  2 20  4  0
  2 28  4  0
  3  6  1  0
  3 19  1  0
  4 19  1  0
  4 26  1  0
  5 17  4  0
  5 18  4  0
  6 20  1  0
  6 26  1  0
  7 24  4  0
  8 15  4  0
  8 24  4  0
  9 14  4  0
  9 21  4  0
 10 12  4  0
 10 27  4  0
 11 12  4  0
 11 23  4  0
 13 23  4  0
 13 27  4  0
 14 20  4  0
 15 22  4  0
 16 18  4  0
 16 25  2  0
 16 28  4  0
 21 28  4  0
 24 27  1  0
M  END
$$$$

 Created by Python create_sdf_string function

 28 31  0  0  0  0  0  0  0  0999 V2000
   -1.0054  -13.0622   19.1198 C   0  0  0  0  0  0  0  0  0  0  0  0
    3.1478   -8.5360   28.5161 C   0  0  0  0  0  0  0  0  0  0  0  0
    0.5798   -7.1906   27.9330 C   0  0  0  0  0  0  0  0  0  0  0  0
    0.3978   -5.1561   26.6955 C   0  0  0  0  0  0  0  0  0  0  0  0
    2.3063  -10.0533   30.0125 C   0  0  0  0  0  0  0  0  0  0  0  0
    1.8591   -6.8254   27.4685 N   0  0  0  0  0  0  0  0  0  0  0  0
   -0.2167  -12.1055   18.5568 C   0  0  0  0  0  0  0  0  0  0  0  0
   -2.0661  -10.6994   18.1916 C   0  0  0  0  0  0  0  0  0  0  0  0
    5.2703   -7.5691   27.1123 C   0  0  0  0  0  0  0  0  0  0  0  0
    1.6204   -9.9887   17.2935 C   0  0  0  0  0  0  0  0  0  0  0  0
    1.8931   -7.9265   16.2047 C   0  0  0  0  0  0  0  0  0  0  0  0
    2.4396   -9.0801   16.7132 C   0  0  0  0  0  0  0  0  0  0  0  0
   -0.2575   -8.6234   16.8582 C   0  0  0  0  0  0  0  0  0  0  0  0
    4.0614   -7.0367   27.0106 N   0  0  0  0  0  0  0  0  0  0  0  0
   -2.9133  -11.6279   18.7578 C   0  0  0  0  0  0  0  0  0  0  0  0
    4.5688  -10.1291   29.5758 C   0  0  0  0  0  0  0  0  0  0  0  0
    2.1008   -9.0410   29.1852 N   0  0  0  0  0  0  0  0  0  0  0  0
    3.4829  -10.5697   30.2091 N   0  0  0  0  0  0  0  0  0  0  0  0
   -0.3363   -6.1172   27.5628 C   0  0  0  0  0  0  0  0  0  0  0  0
    3.0331   -7.4400   27.6362 C   0  0  0  0  0  0  0  0  0  0  0  0
    5.4553   -8.5933   27.9644 C   0  0  0  0  0  0  0  0  0  0  0  0
   -2.3870  -12.8440   19.2512 C   0  0  0  0  0  0  0  0  0  0  0  0
    0.5331   -7.6964   16.2751 C   0  0  0  0  0  0  0  0  0  0  0  0
   -0.6740  -10.8737   18.0482 C   0  0  0  0  0  0  0  0  0  0  0  0
    5.6751  -10.5870   29.7637 O   0  0  0  0  0  0  0  0  0  0  0  0
    1.7612   -5.6483   26.7172 C   0  0  0  0  0  0  0  0  0  0  0  0
    0.2221   -9.8326   17.4055 C   0  0  0  0  0  0  0  0  0  0  0  0
    4.3850   -9.0730   28.6745 C   0  0  0  0  0  0  0  0  0  0  0  0
  1  7  4  0
  1 22  4  0
  2 17  4  0
  2 20  4  0
  2 28  4  0
  3  6  1  0
  3 19  1  0
  4 19  1  0
  4 26  1  0
  5 17  4  0
  5 18  4  0
  6 20  1  0
  6 26  1  0
  7 24  4  0
  8 15  4  0
  8 24  4  0
  9 14  4  0
  9 21  4  0
 10 12  4  0
 10 27  4  0
 11 12  4  0
 11 23  4  0
 13 23  4  0
 13 27  4  0
 14 20  4  0
 15 22  4  0
 16 18  4  0
 16 25  2  0
 16 28  4  0
 21 28  4  0
 24 27  1  0
M  END
$$$$

 Created by Python create_sdf_string function

 28 31  0  0  0  0  0  0  0  0999 V2000
   -1.0054  -13.0622   19.1198 C   0  0  0  0  0  0  0  0  0  0  0  0
    3.1478   -8.5360   28.5161 C   0  0  0  0  0  0  0  0  0  0  0  0
    0.5798   -7.1906   27.9330 C   0  0  0  0  0  0  0  0  0  0  0  0
    0.3978   -5.1561   26.6955 C   0  0  0  0  0  0  0  0  0  0  0  0
    2.3063  -10.0533   30.0125 C   0  0  0  0  0  0  0  0  0  0  0  0
    1.8591   -6.8254   27.4685 N   0  0  0  0  0  0  0  0  0  0  0  0
   -0.2167  -12.1055   18.5568 C   0  0  0  0  0  0  0  0  0  0  0  0
   -2.0661  -10.6994   18.1916 C   0  0  0  0  0  0  0  0  0  0  0  0
    5.2703   -7.5691   27.1123 C   0  0  0  0  0  0  0  0  0  0  0  0
    1.6204   -9.9887   17.2935 C   0  0  0  0  0  0  0  0  0  0  0  0
    1.8931   -7.9265   16.2047 C   0  0  0  0  0  0  0  0  0  0  0  0
    2.4396   -9.0801   16.7132 C   0  0  0  0  0  0  0  0  0  0  0  0
   -0.2575   -8.6234   16.8582 C   0  0  0  0  0  0  0  0  0  0  0  0
    4.0614   -7.0367   27.0106 N   0  0  0  0  0  0  0  0  0  0  0  0
   -2.9133  -11.6279   18.7578 C   0  0  0  0  0  0  0  0  0  0  0  0
    4.5688  -10.1291   29.5758 C   0  0  0  0  0  0  0  0  0  0  0  0
    2.1008   -9.0410   29.1852 N   0  0  0  0  0  0  0  0  0  0  0  0
    3.4829  -10.5697   30.2091 N   0  0  0  0  0  0  0  0  0  0  0  0
   -0.3363   -6.1172   27.5628 C   0  0  0  0  0  0  0  0  0  0  0  0
    3.0331   -7.4400   27.6362 C   0  0  0  0  0  0  0  0  0  0  0  0
    5.4553   -8.5933   27.9644 C   0  0  0  0  0  0  0  0  0  0  0  0
   -2.3870  -12.8440   19.2512 C   0  0  0  0  0  0  0  0  0  0  0  0
    0.5331   -7.6964   16.2751 C   0  0  0  0  0  0  0  0  0  0  0  0
   -0.6740  -10.8737   18.0482 C   0  0  0  0  0  0  0  0  0  0  0  0
    5.6751  -10.5870   29.7637 O   0  0  0  0  0  0  0  0  0  0  0  0
    1.7612   -5.6483   26.7172 C   0  0  0  0  0  0  0  0  0  0  0  0
    0.2221   -9.8326   17.4055 C   0  0  0  0  0  0  0  0  0  0  0  0
    4.3850   -9.0730   28.6745 C   0  0  0  0  0  0  0  0  0  0  0  0
  1  7  4  0
  1 22  4  0
  2 17  4  0
  2 20  4  0
  2 28  4  0
  3  6  1  0
  3 19  1  0
  4 19  1  0
  4 26  1  0
  5 17  4  0
  5 18  4  0
  6 20  1  0
  6 26  1  0
  7 24  4  0
  8 15  4  0
  8 24  4  0
  9 14  4  0
  9 21  4  0
 10 12  4  0
 10 27  4  0
 11 12  4  0
 11 23  4  0
 13 23  4  0
 13 27  4  0
 14 20  4  0
 15 22  4  0
 16 18  4  0
 16 25  2  0
 16 28  4  0
 21 28  4  0
 24 27  1  0
M  END
$$$$

 Created by Python create_sdf_string function

 28 31  0  0  0  0  0  0  0  0999 V2000
   -1.0054  -13.0622   19.1198 C   0  0  0  0  0  0  0  0  0  0  0  0
    3.1478   -8.5360   28.5161 C   0  0  0  0  0  0  0  0  0  0  0  0
    0.5798   -7.1906   27.9330 C   0  0  0  0  0  0  0  0  0  0  0  0
    0.3978   -5.1561   26.6955 C   0  0  0  0  0  0  0  0  0  0  0  0
    2.3063  -10.0533   30.0125 C   0  0  0  0  0  0  0  0  0  0  0  0
    1.8591   -6.8254   27.4685 N   0  0  0  0  0  0  0  0  0  0  0  0
   -0.2167  -12.1055   18.5568 C   0  0  0  0  0  0  0  0  0  0  0  0
   -2.0661  -10.6994   18.1916 C   0  0  0  0  0  0  0  0  0  0  0  0
    5.2703   -7.5691   27.1123 C   0  0  0  0  0  0  0  0  0  0  0  0
    1.6204   -9.9887   17.2935 C   0  0  0  0  0  0  0  0  0  0  0  0
    1.8931   -7.9265   16.2047 C   0  0  0  0  0  0  0  0  0  0  0  0
    2.4396   -9.0801   16.7132 C   0  0  0  0  0  0  0  0  0  0  0  0
   -0.2575   -8.6234   16.8582 C   0  0  0  0  0  0  0  0  0  0  0  0
    4.0614   -7.0367   27.0106 N   0  0  0  0  0  0  0  0  0  0  0  0
   -2.9133  -11.6279   18.7578 C   0  0  0  0  0  0  0  0  0  0  0  0
    4.5688  -10.1291   29.5758 C   0  0  0  0  0  0  0  0  0  0  0  0
    2.1008   -9.0410   29.1852 N   0  0  0  0  0  0  0  0  0  0  0  0
    3.4829  -10.5697   30.2091 N   0  0  0  0  0  0  0  0  0  0  0  0
   -0.3363   -6.1172   27.5628 C   0  0  0  0  0  0  0  0  0  0  0  0
    3.0331   -7.4400   27.6362 C   0  0  0  0  0  0  0  0  0  0  0  0
    5.4553   -8.5933   27.9644 C   0  0  0  0  0  0  0  0  0  0  0  0
   -2.3870  -12.8440   19.2512 C   0  0  0  0  0  0  0  0  0  0  0  0
    0.5331   -7.6964   16.2751 C   0  0  0  0  0  0  0  0  0  0  0  0
   -0.6740  -10.8737   18.0482 C   0  0  0  0  0  0  0  0  0  0  0  0
    5.6751  -10.5870   29.7637 O   0  0  0  0  0  0  0  0  0  0  0  0
    1.7612   -5.6483   26.7172 C   0  0  0  0  0  0  0  0  0  0  0  0
    0.2221   -9.8326   17.4055 C   0  0  0  0  0  0  0  0  0  0  0  0
    4.3850   -9.0730   28.6745 C   0  0  0  0  0  0  0  0  0  0  0  0
  1  7  4  0
  1 22  4  0
  2 17  4  0
  2 20  4  0
  2 28  4  0
  3  6  1  0
  3 19  1  0
  4 19  1  0
  4 26  1  0
  5 17  4  0
  5 18  4  0
  6 20  1  0
  6 26  1  0
  7 24  4  0
  8 15  4  0
  8 24  4  0
  9 14  4  0
  9 21  4  0
 10 12  4  0
 10 27  4  0
 11 12  4  0
 11 23  4  0
 13 23  4  0
 13 27  4  0
 14 20  4  0
 15 22  4  0
 16 18  4  0
 16 25  2  0
 16 28  4  0
 21 28  4  0
 24 27  1  0
M  END
$$$$

 Created by Python create_sdf_string function

 28 31  0  0  0  0  0  0  0  0999 V2000
   -1.0054  -13.0622   19.1198 C   0  0  0  0  0  0  0  0  0  0  0  0
    3.1478   -8.5360   28.5161 C   0  0  0  0  0  0  0  0  0  0  0  0
    0.5798   -7.1906   27.9330 C   0  0  0  0  0  0  0  0  0  0  0  0
    0.3978   -5.1561   26.6955 C   0  0  0  0  0  0  0  0  0  0  0  0
    2.3063  -10.0533   30.0125 C   0  0  0  0  0  0  0  0  0  0  0  0
    1.8591   -6.8254   27.4685 N   0  0  0  0  0  0  0  0  0  0  0  0
   -0.2167  -12.1055   18.5568 C   0  0  0  0  0  0  0  0  0  0  0  0
   -2.0661  -10.6994   18.1916 C   0  0  0  0  0  0  0  0  0  0  0  0
    5.2703   -7.5691   27.1123 C   0  0  0  0  0  0  0  0  0  0  0  0
    1.6204   -9.9887   17.2935 C   0  0  0  0  0  0  0  0  0  0  0  0
    1.8931   -7.9265   16.2047 C   0  0  0  0  0  0  0  0  0  0  0  0
    2.4396   -9.0801   16.7132 C   0  0  0  0  0  0  0  0  0  0  0  0
   -0.2575   -8.6234   16.8582 C   0  0  0  0  0  0  0  0  0  0  0  0
    4.0614   -7.0367   27.0106 N   0  0  0  0  0  0  0  0  0  0  0  0
   -2.9133  -11.6279   18.7578 C   0  0  0  0  0  0  0  0  0  0  0  0
    4.5688  -10.1291   29.5758 C   0  0  0  0  0  0  0  0  0  0  0  0
    2.1008   -9.0410   29.1852 N   0  0  0  0  0  0  0  0  0  0  0  0
    3.4829  -10.5697   30.2091 N   0  0  0  0  0  0  0  0  0  0  0  0
   -0.3363   -6.1172   27.5628 C   0  0  0  0  0  0  0  0  0  0  0  0
    3.0331   -7.4400   27.6362 C   0  0  0  0  0  0  0  0  0  0  0  0
    5.4553   -8.5933   27.9644 C   0  0  0  0  0  0  0  0  0  0  0  0
   -2.3870  -12.8440   19.2512 C   0  0  0  0  0  0  0  0  0  0  0  0
    0.5331   -7.6964   16.2751 C   0  0  0  0  0  0  0  0  0  0  0  0
   -0.6740  -10.8737   18.0482 C   0  0  0  0  0  0  0  0  0  0  0  0
    5.6751  -10.5870   29.7637 O   0  0  0  0  0  0  0  0  0  0  0  0
    1.7612   -5.6483   26.7172 C   0  0  0  0  0  0  0  0  0  0  0  0
    0.2221   -9.8326   17.4055 C   0  0  0  0  0  0  0  0  0  0  0  0
    4.3850   -9.0730   28.6745 C   0  0  0  0  0  0  0  0  0  0  0  0
  1  7  4  0
  1 22  4  0
  2 17  4  0
  2 20  4  0
  2 28  4  0
  3  6  1  0
  3 19  1  0
  4 19  1  0
  4 26  1  0
  5 17  4  0
  5 18  4  0
  6 20  1  0
  6 26  1  0
  7 24  4  0
  8 15  4  0
  8 24  4  0
  9 14  4  0
  9 21  4  0
 10 12  4  0
 10 27  4  0
 11 12  4  0
 11 23  4  0
 13 23  4  0
 13 27  4  0
 14 20  4  0
 15 22  4  0
 16 18  4  0
 16 25  2  0
 16 28  4  0
 21 28  4  0
 24 27  1  0
M  END
$$$$

 Created by Python create_sdf_string function

 28 31  0  0  0  0  0  0  0  0999 V2000
   -1.0054  -13.0622   19.1198 C   0  0  0  0  0  0  0  0  0  0  0  0
    3.1478   -8.5360   28.5161 C   0  0  0  0  0  0  0  0  0  0  0  0
    0.5798   -7.1906   27.9330 C   0  0  0  0  0  0  0  0  0  0  0  0
    0.3978   -5.1561   26.6955 C   0  0  0  0  0  0  0  0  0  0  0  0
    2.3063  -10.0533   30.0125 C   0  0  0  0  0  0  0  0  0  0  0  0
    1.8591   -6.8254   27.4685 N   0  0  0  0  0  0  0  0  0  0  0  0
   -0.2167  -12.1055   18.5568 C   0  0  0  0  0  0  0  0  0  0  0  0
   -2.0661  -10.6994   18.1916 C   0  0  0  0  0  0  0  0  0  0  0  0
    5.2703   -7.5691   27.1123 C   0  0  0  0  0  0  0  0  0  0  0  0
    1.6204   -9.9887   17.2935 C   0  0  0  0  0  0  0  0  0  0  0  0
    1.8931   -7.9265   16.2047 C   0  0  0  0  0  0  0  0  0  0  0  0
    2.4396   -9.0801   16.7132 C   0  0  0  0  0  0  0  0  0  0  0  0
   -0.2575   -8.6234   16.8582 C   0  0  0  0  0  0  0  0  0  0  0  0
    4.0614   -7.0367   27.0106 N   0  0  0  0  0  0  0  0  0  0  0  0
   -2.9133  -11.6279   18.7578 C   0  0  0  0  0  0  0  0  0  0  0  0
    4.5688  -10.1291   29.5758 C   0  0  0  0  0  0  0  0  0  0  0  0
    2.1008   -9.0410   29.1852 N   0  0  0  0  0  0  0  0  0  0  0  0
    3.4829  -10.5697   30.2091 N   0  0  0  0  0  0  0  0  0  0  0  0
   -0.3363   -6.1172   27.5628 C   0  0  0  0  0  0  0  0  0  0  0  0
    3.0331   -7.4400   27.6362 C   0  0  0  0  0  0  0  0  0  0  0  0
    5.4553   -8.5933   27.9644 C   0  0  0  0  0  0  0  0  0  0  0  0
   -2.3870  -12.8440   19.2512 C   0  0  0  0  0  0  0  0  0  0  0  0
    0.5331   -7.6964   16.2751 C   0  0  0  0  0  0  0  0  0  0  0  0
   -0.6740  -10.8737   18.0482 C   0  0  0  0  0  0  0  0  0  0  0  0
    5.6751  -10.5870   29.7637 O   0  0  0  0  0  0  0  0  0  0  0  0
    1.7612   -5.6483   26.7172 C   0  0  0  0  0  0  0  0  0  0  0  0
    0.2221   -9.8326   17.4055 C   0  0  0  0  0  0  0  0  0  0  0  0
    4.3850   -9.0730   28.6745 C   0  0  0  0  0  0  0  0  0  0  0  0
  1  7  4  0
  1 22  4  0
  2 17  4  0
  2 20  4  0
  2 28  4  0
  3  6  1  0
  3 19  1  0
  4 19  1  0
  4 26  1  0
  5 17  4  0
  5 18  4  0
  6 20  1  0
  6 26  1  0
  7 24  4  0
  8 15  4  0
  8 24  4  0
  9 14  4  0
  9 21  4  0
 10 12  4  0
 10 27  4  0
 11 12  4  0
 11 23  4  0
 13 23  4  0
 13 27  4  0
 14 20  4  0
 15 22  4  0
 16 18  4  0
 16 25  2  0
 16 28  4  0
 21 28  4  0
 24 27  1  0
M  END
$$$$

 Created by Python create_sdf_string function

 28 31  0  0  0  0  0  0  0  0999 V2000
   -1.0054  -13.0622   19.1198 C   0  0  0  0  0  0  0  0  0  0  0  0
    3.1478   -8.5360   28.5161 C   0  0  0  0  0  0  0  0  0  0  0  0
    0.5798   -7.1906   27.9330 C   0  0  0  0  0  0  0  0  0  0  0  0
    0.3978   -5.1561   26.6955 C   0  0  0  0  0  0  0  0  0  0  0  0
    2.3063  -10.0533   30.0125 C   0  0  0  0  0  0  0  0  0  0  0  0
    1.8591   -6.8254   27.4685 N   0  0  0  0  0  0  0  0  0  0  0  0
   -0.2167  -12.1055   18.5568 C   0  0  0  0  0  0  0  0  0  0  0  0
   -2.0661  -10.6994   18.1916 C   0  0  0  0  0  0  0  0  0  0  0  0
    5.2703   -7.5691   27.1123 C   0  0  0  0  0  0  0  0  0  0  0  0
    1.6204   -9.9887   17.2935 C   0  0  0  0  0  0  0  0  0  0  0  0
    1.8931   -7.9265   16.2047 C   0  0  0  0  0  0  0  0  0  0  0  0
    2.4396   -9.0801   16.7132 C   0  0  0  0  0  0  0  0  0  0  0  0
   -0.2575   -8.6234   16.8582 C   0  0  0  0  0  0  0  0  0  0  0  0
    4.0614   -7.0367   27.0106 N   0  0  0  0  0  0  0  0  0  0  0  0
   -2.9133  -11.6279   18.7578 C   0  0  0  0  0  0  0  0  0  0  0  0
    4.5688  -10.1291   29.5758 C   0  0  0  0  0  0  0  0  0  0  0  0
    2.1008   -9.0410   29.1852 N   0  0  0  0  0  0  0  0  0  0  0  0
    3.4829  -10.5697   30.2091 N   0  0  0  0  0  0  0  0  0  0  0  0
   -0.3363   -6.1172   27.5628 C   0  0  0  0  0  0  0  0  0  0  0  0
    3.0331   -7.4400   27.6362 C   0  0  0  0  0  0  0  0  0  0  0  0
    5.4553   -8.5933   27.9644 C   0  0  0  0  0  0  0  0  0  0  0  0
   -2.3870  -12.8440   19.2512 C   0  0  0  0  0  0  0  0  0  0  0  0
    0.5331   -7.6964   16.2751 C   0  0  0  0  0  0  0  0  0  0  0  0
   -0.6740  -10.8737   18.0482 C   0  0  0  0  0  0  0  0  0  0  0  0
    5.6751  -10.5870   29.7637 O   0  0  0  0  0  0  0  0  0  0  0  0
    1.7612   -5.6483   26.7172 C   0  0  0  0  0  0  0  0  0  0  0  0
    0.2221   -9.8326   17.4055 C   0  0  0  0  0  0  0  0  0  0  0  0
    4.3850   -9.0730   28.6745 C   0  0  0  0  0  0  0  0  0  0  0  0
  1  7  4  0
  1 22  4  0
  2 17  4  0
  2 20  4  0
  2 28  4  0
  3  6  1  0
  3 19  1  0
  4 19  1  0
  4 26  1  0
  5 17  4  0
  5 18  4  0
  6 20  1  0
  6 26  1  0
  7 24  4  0
  8 15  4  0
  8 24  4  0
  9 14  4  0
  9 21  4  0
 10 12  4  0
 10 27  4  0
 11 12  4  0
 11 23  4  0
 13 23  4  0
 13 27  4  0
 14 20  4  0
 15 22  4  0
 16 18  4  0
 16 25  2  0
 16 28  4  0
 21 28  4  0
 24 27  1  0
M  END
$$$$

 Created by Python create_sdf_string function

 28 31  0  0  0  0  0  0  0  0999 V2000
   -1.0054  -13.0622   19.1198 C   0  0  0  0  0  0  0  0  0  0  0  0
    3.1478   -8.5360   28.5161 C   0  0  0  0  0  0  0  0  0  0  0  0
    0.5798   -7.1906   27.9330 C   0  0  0  0  0  0  0  0  0  0  0  0
    0.3978   -5.1561   26.6955 C   0  0  0  0  0  0  0  0  0  0  0  0
    2.3063  -10.0533   30.0125 C   0  0  0  0  0  0  0  0  0  0  0  0
    1.8591   -6.8254   27.4685 N   0  0  0  0  0  0  0  0  0  0  0  0
   -0.2167  -12.1055   18.5568 C   0  0  0  0  0  0  0  0  0  0  0  0
   -2.0661  -10.6994   18.1916 C   0  0  0  0  0  0  0  0  0  0  0  0
    5.2703   -7.5691   27.1123 C   0  0  0  0  0  0  0  0  0  0  0  0
    1.6204   -9.9887   17.2935 C   0  0  0  0  0  0  0  0  0  0  0  0
    1.8931   -7.9265   16.2047 C   0  0  0  0  0  0  0  0  0  0  0  0
    2.4396   -9.0801   16.7132 C   0  0  0  0  0  0  0  0  0  0  0  0
   -0.2575   -8.6234   16.8582 C   0  0  0  0  0  0  0  0  0  0  0  0
    4.0614   -7.0367   27.0106 N   0  0  0  0  0  0  0  0  0  0  0  0
   -2.9133  -11.6279   18.7578 C   0  0  0  0  0  0  0  0  0  0  0  0
    4.5688  -10.1291   29.5758 C   0  0  0  0  0  0  0  0  0  0  0  0
    2.1008   -9.0410   29.1852 N   0  0  0  0  0  0  0  0  0  0  0  0
    3.4829  -10.5697   30.2091 N   0  0  0  0  0  0  0  0  0  0  0  0
   -0.3363   -6.1172   27.5628 C   0  0  0  0  0  0  0  0  0  0  0  0
    3.0331   -7.4400   27.6362 C   0  0  0  0  0  0  0  0  0  0  0  0
    5.4553   -8.5933   27.9644 C   0  0  0  0  0  0  0  0  0  0  0  0
   -2.3870  -12.8440   19.2512 C   0  0  0  0  0  0  0  0  0  0  0  0
    0.5331   -7.6964   16.2751 C   0  0  0  0  0  0  0  0  0  0  0  0
   -0.6740  -10.8737   18.0482 C   0  0  0  0  0  0  0  0  0  0  0  0
    5.6751  -10.5870   29.7637 O   0  0  0  0  0  0  0  0  0  0  0  0
    1.7612   -5.6483   26.7172 C   0  0  0  0  0  0  0  0  0  0  0  0
    0.2221   -9.8326   17.4055 C   0  0  0  0  0  0  0  0  0  0  0  0
    4.3850   -9.0730   28.6745 C   0  0  0  0  0  0  0  0  0  0  0  0
  1  7  4  0
  1 22  4  0
  2 17  4  0
  2 20  4  0
  2 28  4  0
  3  6  1  0
  3 19  1  0
  4 19  1  0
  4 26  1  0
  5 17  4  0
  5 18  4  0
  6 20  1  0
  6 26  1  0
  7 24  4  0
  8 15  4  0
  8 24  4  0
  9 14  4  0
  9 21  4  0
 10 12  4  0
 10 27  4  0
 11 12  4  0
 11 23  4  0
 13 23  4  0
 13 27  4  0
 14 20  4  0
 15 22  4  0
 16 18  4  0
 16 25  2  0
 16 28  4  0
 21 28  4  0
 24 27  1  0
M  END
$$$$

 Created by Python create_sdf_string function

 28 31  0  0  0  0  0  0  0  0999 V2000
   -1.0054  -13.0622   19.1198 C   0  0  0  0  0  0  0  0  0  0  0  0
    3.1478   -8.5360   28.5161 C   0  0  0  0  0  0  0  0  0  0  0  0
    0.5798   -7.1906   27.9330 C   0  0  0  0  0  0  0  0  0  0  0  0
    0.3978   -5.1561   26.6955 C   0  0  0  0  0  0  0  0  0  0  0  0
    2.3063  -10.0533   30.0125 C   0  0  0  0  0  0  0  0  0  0  0  0
    1.8591   -6.8254   27.4685 N   0  0  0  0  0  0  0  0  0  0  0  0
   -0.2167  -12.1055   18.5568 C   0  0  0  0  0  0  0  0  0  0  0  0
   -2.0661  -10.6994   18.1916 C   0  0  0  0  0  0  0  0  0  0  0  0
    5.2703   -7.5691   27.1123 C   0  0  0  0  0  0  0  0  0  0  0  0
    1.6204   -9.9887   17.2935 C   0  0  0  0  0  0  0  0  0  0  0  0
    1.8931   -7.9265   16.2047 C   0  0  0  0  0  0  0  0  0  0  0  0
    2.4396   -9.0801   16.7132 C   0  0  0  0  0  0  0  0  0  0  0  0
   -0.2575   -8.6234   16.8582 C   0  0  0  0  0  0  0  0  0  0  0  0
    4.0614   -7.0367   27.0106 N   0  0  0  0  0  0  0  0  0  0  0  0
   -2.9133  -11.6279   18.7578 C   0  0  0  0  0  0  0  0  0  0  0  0
    4.5688  -10.1291   29.5758 C   0  0  0  0  0  0  0  0  0  0  0  0
    2.1008   -9.0410   29.1852 N   0  0  0  0  0  0  0  0  0  0  0  0
    3.4829  -10.5697   30.2091 N   0  0  0  0  0  0  0  0  0  0  0  0
   -0.3363   -6.1172   27.5628 C   0  0  0  0  0  0  0  0  0  0  0  0
    3.0331   -7.4400   27.6362 C   0  0  0  0  0  0  0  0  0  0  0  0
    5.4553   -8.5933   27.9644 C   0  0  0  0  0  0  0  0  0  0  0  0
   -2.3870  -12.8440   19.2512 C   0  0  0  0  0  0  0  0  0  0  0  0
    0.5331   -7.6964   16.2751 C   0  0  0  0  0  0  0  0  0  0  0  0
   -0.6740  -10.8737   18.0482 C   0  0  0  0  0  0  0  0  0  0  0  0
    5.6751  -10.5870   29.7637 O   0  0  0  0  0  0  0  0  0  0  0  0
    1.7612   -5.6483   26.7172 C   0  0  0  0  0  0  0  0  0  0  0  0
    0.2221   -9.8326   17.4055 C   0  0  0  0  0  0  0  0  0  0  0  0
    4.3850   -9.0730   28.6745 C   0  0  0  0  0  0  0  0  0  0  0  0
  1  7  4  0
  1 22  4  0
  2 17  4  0
  2 20  4  0
  2 28  4  0
  3  6  1  0
  3 19  1  0
  4 19  1  0
  4 26  1  0
  5 17  4  0
  5 18  4  0
  6 20  1  0
  6 26  1  0
  7 24  4  0
  8 15  4  0
  8 24  4  0
  9 14  4  0
  9 21  4  0
 10 12  4  0
 10 27  4  0
 11 12  4  0
 11 23  4  0
 13 23  4  0
 13 27  4  0
 14 20  4  0
 15 22  4  0
 16 18  4  0
 16 25  2  0
 16 28  4  0
 21 28  4  0
 24 27  1  0
M  END
$$$$

 Created by Python create_sdf_string function

 28 31  0  0  0  0  0  0  0  0999 V2000
   -1.0054  -13.0622   19.1198 C   0  0  0  0  0  0  0  0  0  0  0  0
    3.1478   -8.5360   28.5161 C   0  0  0  0  0  0  0  0  0  0  0  0
    0.5798   -7.1906   27.9330 C   0  0  0  0  0  0  0  0  0  0  0  0
    0.3978   -5.1561   26.6955 C   0  0  0  0  0  0  0  0  0  0  0  0
    2.3063  -10.0533   30.0125 C   0  0  0  0  0  0  0  0  0  0  0  0
    1.8591   -6.8254   27.4685 N   0  0  0  0  0  0  0  0  0  0  0  0
   -0.2167  -12.1055   18.5568 C   0  0  0  0  0  0  0  0  0  0  0  0
   -2.0661  -10.6994   18.1916 C   0  0  0  0  0  0  0  0  0  0  0  0
    5.2703   -7.5691   27.1123 C   0  0  0  0  0  0  0  0  0  0  0  0
    1.6204   -9.9887   17.2935 C   0  0  0  0  0  0  0  0  0  0  0  0
    1.8931   -7.9265   16.2047 C   0  0  0  0  0  0  0  0  0  0  0  0
    2.4396   -9.0801   16.7132 C   0  0  0  0  0  0  0  0  0  0  0  0
   -0.2575   -8.6234   16.8582 C   0  0  0  0  0  0  0  0  0  0  0  0
    4.0614   -7.0367   27.0106 N   0  0  0  0  0  0  0  0  0  0  0  0
   -2.9133  -11.6279   18.7578 C   0  0  0  0  0  0  0  0  0  0  0  0
    4.5688  -10.1291   29.5758 C   0  0  0  0  0  0  0  0  0  0  0  0
    2.1008   -9.0410   29.1852 N   0  0  0  0  0  0  0  0  0  0  0  0
    3.4829  -10.5697   30.2091 N   0  0  0  0  0  0  0  0  0  0  0  0
   -0.3363   -6.1172   27.5628 C   0  0  0  0  0  0  0  0  0  0  0  0
    3.0331   -7.4400   27.6362 C   0  0  0  0  0  0  0  0  0  0  0  0
    5.4553   -8.5933   27.9644 C   0  0  0  0  0  0  0  0  0  0  0  0
   -2.3870  -12.8440   19.2512 C   0  0  0  0  0  0  0  0  0  0  0  0
    0.5331   -7.6964   16.2751 C   0  0  0  0  0  0  0  0  0  0  0  0
   -0.6740  -10.8737   18.0482 C   0  0  0  0  0  0  0  0  0  0  0  0
    5.6751  -10.5870   29.7637 O   0  0  0  0  0  0  0  0  0  0  0  0
    1.7612   -5.6483   26.7172 C   0  0  0  0  0  0  0  0  0  0  0  0
    0.2221   -9.8326   17.4055 C   0  0  0  0  0  0  0  0  0  0  0  0
    4.3850   -9.0730   28.6745 C   0  0  0  0  0  0  0  0  0  0  0  0
  1  7  4  0
  1 22  4  0
  2 17  4  0
  2 20  4  0
  2 28  4  0
  3  6  1  0
  3 19  1  0
  4 19  1  0
  4 26  1  0
  5 17  4  0
  5 18  4  0
  6 20  1  0
  6 26  1  0
  7 24  4  0
  8 15  4  0
  8 24  4  0
  9 14  4  0
  9 21  4  0
 10 12  4  0
 10 27  4  0
 11 12  4  0
 11 23  4  0
 13 23  4  0
 13 27  4  0
 14 20  4  0
 15 22  4  0
 16 18  4  0
 16 25  2  0
 16 28  4  0
 21 28  4  0
 24 27  1  0
M  END
$$$$

 Created by Python create_sdf_string function

 28 31  0  0  0  0  0  0  0  0999 V2000
   -1.0054  -13.0622   19.1198 C   0  0  0  0  0  0  0  0  0  0  0  0
    3.1478   -8.5360   28.5161 C   0  0  0  0  0  0  0  0  0  0  0  0
    0.5798   -7.1906   27.9330 C   0  0  0  0  0  0  0  0  0  0  0  0
    0.3978   -5.1561   26.6955 C   0  0  0  0  0  0  0  0  0  0  0  0
    2.3063  -10.0533   30.0125 C   0  0  0  0  0  0  0  0  0  0  0  0
    1.8591   -6.8254   27.4685 N   0  0  0  0  0  0  0  0  0  0  0  0
   -0.2167  -12.1055   18.5568 C   0  0  0  0  0  0  0  0  0  0  0  0
   -2.0661  -10.6994   18.1916 C   0  0  0  0  0  0  0  0  0  0  0  0
    5.2703   -7.5691   27.1123 C   0  0  0  0  0  0  0  0  0  0  0  0
    1.6204   -9.9887   17.2935 C   0  0  0  0  0  0  0  0  0  0  0  0
    1.8931   -7.9265   16.2047 C   0  0  0  0  0  0  0  0  0  0  0  0
    2.4396   -9.0801   16.7132 C   0  0  0  0  0  0  0  0  0  0  0  0
   -0.2575   -8.6234   16.8582 C   0  0  0  0  0  0  0  0  0  0  0  0
    4.0614   -7.0367   27.0106 N   0  0  0  0  0  0  0  0  0  0  0  0
   -2.9133  -11.6279   18.7578 C   0  0  0  0  0  0  0  0  0  0  0  0
    4.5688  -10.1291   29.5758 C   0  0  0  0  0  0  0  0  0  0  0  0
    2.1008   -9.0410   29.1852 N   0  0  0  0  0  0  0  0  0  0  0  0
    3.4829  -10.5697   30.2091 N   0  0  0  0  0  0  0  0  0  0  0  0
   -0.3363   -6.1172   27.5628 C   0  0  0  0  0  0  0  0  0  0  0  0
    3.0331   -7.4400   27.6362 C   0  0  0  0  0  0  0  0  0  0  0  0
    5.4553   -8.5933   27.9644 C   0  0  0  0  0  0  0  0  0  0  0  0
   -2.3870  -12.8440   19.2512 C   0  0  0  0  0  0  0  0  0  0  0  0
    0.5331   -7.6964   16.2751 C   0  0  0  0  0  0  0  0  0  0  0  0
   -0.6740  -10.8737   18.0482 C   0  0  0  0  0  0  0  0  0  0  0  0
    5.6751  -10.5870   29.7637 O   0  0  0  0  0  0  0  0  0  0  0  0
    1.7612   -5.6483   26.7172 C   0  0  0  0  0  0  0  0  0  0  0  0
    0.2221   -9.8326   17.4055 C   0  0  0  0  0  0  0  0  0  0  0  0
    4.3850   -9.0730   28.6745 C   0  0  0  0  0  0  0  0  0  0  0  0
  1  7  4  0
  1 22  4  0
  2 17  4  0
  2 20  4  0
  2 28  4  0
  3  6  1  0
  3 19  1  0
  4 19  1  0
  4 26  1  0
  5 17  4  0
  5 18  4  0
  6 20  1  0
  6 26  1  0
  7 24  4  0
  8 15  4  0
  8 24  4  0
  9 14  4  0
  9 21  4  0
 10 12  4  0
 10 27  4  0
 11 12  4  0
 11 23  4  0
 13 23  4  0
 13 27  4  0
 14 20  4  0
 15 22  4  0
 16 18  4  0
 16 25  2  0
 16 28  4  0
 21 28  4  0
 24 27  1  0
M  END
$$$$

 Created by Python create_sdf_string function

 28 31  0  0  0  0  0  0  0  0999 V2000
   -1.0054  -13.0622   19.1198 C   0  0  0  0  0  0  0  0  0  0  0  0
    3.1478   -8.5360   28.5161 C   0  0  0  0  0  0  0  0  0  0  0  0
    0.5798   -7.1906   27.9330 C   0  0  0  0  0  0  0  0  0  0  0  0
    0.3978   -5.1561   26.6955 C   0  0  0  0  0  0  0  0  0  0  0  0
    2.3063  -10.0533   30.0125 C   0  0  0  0  0  0  0  0  0  0  0  0
    1.8591   -6.8254   27.4685 N   0  0  0  0  0  0  0  0  0  0  0  0
   -0.2167  -12.1055   18.5568 C   0  0  0  0  0  0  0  0  0  0  0  0
   -2.0661  -10.6994   18.1916 C   0  0  0  0  0  0  0  0  0  0  0  0
    5.2703   -7.5691   27.1123 C   0  0  0  0  0  0  0  0  0  0  0  0
    1.6204   -9.9887   17.2935 C   0  0  0  0  0  0  0  0  0  0  0  0
    1.8931   -7.9265   16.2047 C   0  0  0  0  0  0  0  0  0  0  0  0
    2.4396   -9.0801   16.7132 C   0  0  0  0  0  0  0  0  0  0  0  0
   -0.2575   -8.6234   16.8582 C   0  0  0  0  0  0  0  0  0  0  0  0
    4.0614   -7.0367   27.0106 N   0  0  0  0  0  0  0  0  0  0  0  0
   -2.9133  -11.6279   18.7578 C   0  0  0  0  0  0  0  0  0  0  0  0
    4.5688  -10.1291   29.5758 C   0  0  0  0  0  0  0  0  0  0  0  0
    2.1008   -9.0410   29.1852 N   0  0  0  0  0  0  0  0  0  0  0  0
    3.4829  -10.5697   30.2091 N   0  0  0  0  0  0  0  0  0  0  0  0
   -0.3363   -6.1172   27.5628 C   0  0  0  0  0  0  0  0  0  0  0  0
    3.0331   -7.4400   27.6362 C   0  0  0  0  0  0  0  0  0  0  0  0
    5.4553   -8.5933   27.9644 C   0  0  0  0  0  0  0  0  0  0  0  0
   -2.3870  -12.8440   19.2512 C   0  0  0  0  0  0  0  0  0  0  0  0
    0.5331   -7.6964   16.2751 C   0  0  0  0  0  0  0  0  0  0  0  0
   -0.6740  -10.8737   18.0482 C   0  0  0  0  0  0  0  0  0  0  0  0
    5.6751  -10.5870   29.7637 O   0  0  0  0  0  0  0  0  0  0  0  0
    1.7612   -5.6483   26.7172 C   0  0  0  0  0  0  0  0  0  0  0  0
    0.2221   -9.8326   17.4055 C   0  0  0  0  0  0  0  0  0  0  0  0
    4.3850   -9.0730   28.6745 C   0  0  0  0  0  0  0  0  0  0  0  0
  1  7  4  0
  1 22  4  0
  2 17  4  0
  2 20  4  0
  2 28  4  0
  3  6  1  0
  3 19  1  0
  4 19  1  0
  4 26  1  0
  5 17  4  0
  5 18  4  0
  6 20  1  0
  6 26  1  0
  7 24  4  0
  8 15  4  0
  8 24  4  0
  9 14  4  0
  9 21  4  0
 10 12  4  0
 10 27  4  0
 11 12  4  0
 11 23  4  0
 13 23  4  0
 13 27  4  0
 14 20  4  0
 15 22  4  0
 16 18  4  0
 16 25  2  0
 16 28  4  0
 21 28  4  0
 24 27  1  0
M  END
$$$$

 Created by Python create_sdf_string function

 28 31  0  0  0  0  0  0  0  0999 V2000
   -1.0054  -13.0622   19.1198 C   0  0  0  0  0  0  0  0  0  0  0  0
    3.1478   -8.5360   28.5161 C   0  0  0  0  0  0  0  0  0  0  0  0
    0.5798   -7.1906   27.9330 C   0  0  0  0  0  0  0  0  0  0  0  0
    0.3978   -5.1561   26.6955 C   0  0  0  0  0  0  0  0  0  0  0  0
    2.3063  -10.0533   30.0125 C   0  0  0  0  0  0  0  0  0  0  0  0
    1.8591   -6.8254   27.4685 N   0  0  0  0  0  0  0  0  0  0  0  0
   -0.2167  -12.1055   18.5568 C   0  0  0  0  0  0  0  0  0  0  0  0
   -2.0661  -10.6994   18.1916 C   0  0  0  0  0  0  0  0  0  0  0  0
    5.2703   -7.5691   27.1123 C   0  0  0  0  0  0  0  0  0  0  0  0
    1.6204   -9.9887   17.2935 C   0  0  0  0  0  0  0  0  0  0  0  0
    1.8931   -7.9265   16.2047 C   0  0  0  0  0  0  0  0  0  0  0  0
    2.4396   -9.0801   16.7132 C   0  0  0  0  0  0  0  0  0  0  0  0
   -0.2575   -8.6234   16.8582 C   0  0  0  0  0  0  0  0  0  0  0  0
    4.0614   -7.0367   27.0106 N   0  0  0  0  0  0  0  0  0  0  0  0
   -2.9133  -11.6279   18.7578 C   0  0  0  0  0  0  0  0  0  0  0  0
    4.5688  -10.1291   29.5758 C   0  0  0  0  0  0  0  0  0  0  0  0
    2.1008   -9.0410   29.1852 N   0  0  0  0  0  0  0  0  0  0  0  0
    3.4829  -10.5697   30.2091 N   0  0  0  0  0  0  0  0  0  0  0  0
   -0.3363   -6.1172   27.5628 C   0  0  0  0  0  0  0  0  0  0  0  0
    3.0331   -7.4400   27.6362 C   0  0  0  0  0  0  0  0  0  0  0  0
    5.4553   -8.5933   27.9644 C   0  0  0  0  0  0  0  0  0  0  0  0
   -2.3870  -12.8440   19.2512 C   0  0  0  0  0  0  0  0  0  0  0  0
    0.5331   -7.6964   16.2751 C   0  0  0  0  0  0  0  0  0  0  0  0
   -0.6740  -10.8737   18.0482 C   0  0  0  0  0  0  0  0  0  0  0  0
    5.6751  -10.5870   29.7637 O   0  0  0  0  0  0  0  0  0  0  0  0
    1.7612   -5.6483   26.7172 C   0  0  0  0  0  0  0  0  0  0  0  0
    0.2221   -9.8326   17.4055 C   0  0  0  0  0  0  0  0  0  0  0  0
    4.3850   -9.0730   28.6745 C   0  0  0  0  0  0  0  0  0  0  0  0
  1  7  4  0
  1 22  4  0
  2 17  4  0
  2 20  4  0
  2 28  4  0
  3  6  1  0
  3 19  1  0
  4 19  1  0
  4 26  1  0
  5 17  4  0
  5 18  4  0
  6 20  1  0
  6 26  1  0
  7 24  4  0
  8 15  4  0
  8 24  4  0
  9 14  4  0
  9 21  4  0
 10 12  4  0
 10 27  4  0
 11 12  4  0
 11 23  4  0
 13 23  4  0
 13 27  4  0
 14 20  4  0
 15 22  4  0
 16 18  4  0
 16 25  2  0
 16 28  4  0
 21 28  4  0
 24 27  1  0
M  END
$$$$

 Created by Python create_sdf_string function

 28 31  0  0  0  0  0  0  0  0999 V2000
   -1.0054  -13.0622   19.1198 C   0  0  0  0  0  0  0  0  0  0  0  0
    3.1478   -8.5360   28.5161 C   0  0  0  0  0  0  0  0  0  0  0  0
    0.5798   -7.1906   27.9330 C   0  0  0  0  0  0  0  0  0  0  0  0
    0.3978   -5.1561   26.6955 C   0  0  0  0  0  0  0  0  0  0  0  0
    2.3063  -10.0533   30.0125 C   0  0  0  0  0  0  0  0  0  0  0  0
    1.8591   -6.8254   27.4685 N   0  0  0  0  0  0  0  0  0  0  0  0
   -0.2167  -12.1055   18.5568 C   0  0  0  0  0  0  0  0  0  0  0  0
   -2.0661  -10.6994   18.1916 C   0  0  0  0  0  0  0  0  0  0  0  0
    5.2703   -7.5691   27.1123 C   0  0  0  0  0  0  0  0  0  0  0  0
    1.6204   -9.9887   17.2935 C   0  0  0  0  0  0  0  0  0  0  0  0
    1.8931   -7.9265   16.2047 C   0  0  0  0  0  0  0  0  0  0  0  0
    2.4396   -9.0801   16.7132 C   0  0  0  0  0  0  0  0  0  0  0  0
   -0.2575   -8.6234   16.8582 C   0  0  0  0  0  0  0  0  0  0  0  0
    4.0614   -7.0367   27.0106 N   0  0  0  0  0  0  0  0  0  0  0  0
   -2.9133  -11.6279   18.7578 C   0  0  0  0  0  0  0  0  0  0  0  0
    4.5688  -10.1291   29.5758 C   0  0  0  0  0  0  0  0  0  0  0  0
    2.1008   -9.0410   29.1852 N   0  0  0  0  0  0  0  0  0  0  0  0
    3.4829  -10.5697   30.2091 N   0  0  0  0  0  0  0  0  0  0  0  0
   -0.3363   -6.1172   27.5628 C   0  0  0  0  0  0  0  0  0  0  0  0
    3.0331   -7.4400   27.6362 C   0  0  0  0  0  0  0  0  0  0  0  0
    5.4553   -8.5933   27.9644 C   0  0  0  0  0  0  0  0  0  0  0  0
   -2.3870  -12.8440   19.2512 C   0  0  0  0  0  0  0  0  0  0  0  0
    0.5331   -7.6964   16.2751 C   0  0  0  0  0  0  0  0  0  0  0  0
   -0.6740  -10.8737   18.0482 C   0  0  0  0  0  0  0  0  0  0  0  0
    5.6751  -10.5870   29.7637 O   0  0  0  0  0  0  0  0  0  0  0  0
    1.7612   -5.6483   26.7172 C   0  0  0  0  0  0  0  0  0  0  0  0
    0.2221   -9.8326   17.4055 C   0  0  0  0  0  0  0  0  0  0  0  0
    4.3850   -9.0730   28.6745 C   0  0  0  0  0  0  0  0  0  0  0  0
  1  7  4  0
  1 22  4  0
  2 17  4  0
  2 20  4  0
  2 28  4  0
  3  6  1  0
  3 19  1  0
  4 19  1  0
  4 26  1  0
  5 17  4  0
  5 18  4  0
  6 20  1  0
  6 26  1  0
  7 24  4  0
  8 15  4  0
  8 24  4  0
  9 14  4  0
  9 21  4  0
 10 12  4  0
 10 27  4  0
 11 12  4  0
 11 23  4  0
 13 23  4  0
 13 27  4  0
 14 20  4  0
 15 22  4  0
 16 18  4  0
 16 25  2  0
 16 28  4  0
 21 28  4  0
 24 27  1  0
M  END
$$$$

 Created by Python create_sdf_string function

 28 31  0  0  0  0  0  0  0  0999 V2000
   -1.0054  -13.0622   19.1198 C   0  0  0  0  0  0  0  0  0  0  0  0
    3.1478   -8.5360   28.5161 C   0  0  0  0  0  0  0  0  0  0  0  0
    0.5798   -7.1906   27.9330 C   0  0  0  0  0  0  0  0  0  0  0  0
    0.3978   -5.1561   26.6955 C   0  0  0  0  0  0  0  0  0  0  0  0
    2.3063  -10.0533   30.0125 C   0  0  0  0  0  0  0  0  0  0  0  0
    1.8591   -6.8254   27.4685 N   0  0  0  0  0  0  0  0  0  0  0  0
   -0.2167  -12.1055   18.5568 C   0  0  0  0  0  0  0  0  0  0  0  0
   -2.0661  -10.6994   18.1916 C   0  0  0  0  0  0  0  0  0  0  0  0
    5.2703   -7.5691   27.1123 C   0  0  0  0  0  0  0  0  0  0  0  0
    1.6204   -9.9887   17.2935 C   0  0  0  0  0  0  0  0  0  0  0  0
    1.8931   -7.9265   16.2047 C   0  0  0  0  0  0  0  0  0  0  0  0
    2.4396   -9.0801   16.7132 C   0  0  0  0  0  0  0  0  0  0  0  0
   -0.2575   -8.6234   16.8582 C   0  0  0  0  0  0  0  0  0  0  0  0
    4.0614   -7.0367   27.0106 N   0  0  0  0  0  0  0  0  0  0  0  0
   -2.9133  -11.6279   18.7578 C   0  0  0  0  0  0  0  0  0  0  0  0
    4.5688  -10.1291   29.5758 C   0  0  0  0  0  0  0  0  0  0  0  0
    2.1008   -9.0410   29.1852 N   0  0  0  0  0  0  0  0  0  0  0  0
    3.4829  -10.5697   30.2091 N   0  0  0  0  0  0  0  0  0  0  0  0
   -0.3363   -6.1172   27.5628 C   0  0  0  0  0  0  0  0  0  0  0  0
    3.0331   -7.4400   27.6362 C   0  0  0  0  0  0  0  0  0  0  0  0
    5.4553   -8.5933   27.9644 C   0  0  0  0  0  0  0  0  0  0  0  0
   -2.3870  -12.8440   19.2512 C   0  0  0  0  0  0  0  0  0  0  0  0
    0.5331   -7.6964   16.2751 C   0  0  0  0  0  0  0  0  0  0  0  0
   -0.6740  -10.8737   18.0482 C   0  0  0  0  0  0  0  0  0  0  0  0
    5.6751  -10.5870   29.7637 O   0  0  0  0  0  0  0  0  0  0  0  0
    1.7612   -5.6483   26.7172 C   0  0  0  0  0  0  0  0  0  0  0  0
    0.2221   -9.8326   17.4055 C   0  0  0  0  0  0  0  0  0  0  0  0
    4.3850   -9.0730   28.6745 C   0  0  0  0  0  0  0  0  0  0  0  0
  1  7  4  0
  1 22  4  0
  2 17  4  0
  2 20  4  0
  2 28  4  0
  3  6  1  0
  3 19  1  0
  4 19  1  0
  4 26  1  0
  5 17  4  0
  5 18  4  0
  6 20  1  0
  6 26  1  0
  7 24  4  0
  8 15  4  0
  8 24  4  0
  9 14  4  0
  9 21  4  0
 10 12  4  0
 10 27  4  0
 11 12  4  0
 11 23  4  0
 13 23  4  0
 13 27  4  0
 14 20  4  0
 15 22  4  0
 16 18  4  0
 16 25  2  0
 16 28  4  0
 21 28  4  0
 24 27  1  0
M  END
$$$$

 Created by Python create_sdf_string function

 28 31  0  0  0  0  0  0  0  0999 V2000
   -1.0054  -13.0622   19.1198 C   0  0  0  0  0  0  0  0  0  0  0  0
    3.1478   -8.5360   28.5161 C   0  0  0  0  0  0  0  0  0  0  0  0
    0.5798   -7.1906   27.9330 C   0  0  0  0  0  0  0  0  0  0  0  0
    0.3978   -5.1561   26.6955 C   0  0  0  0  0  0  0  0  0  0  0  0
    2.3063  -10.0533   30.0125 C   0  0  0  0  0  0  0  0  0  0  0  0
    1.8591   -6.8254   27.4685 N   0  0  0  0  0  0  0  0  0  0  0  0
   -0.2167  -12.1055   18.5568 C   0  0  0  0  0  0  0  0  0  0  0  0
   -2.0661  -10.6994   18.1916 C   0  0  0  0  0  0  0  0  0  0  0  0
    5.2703   -7.5691   27.1123 C   0  0  0  0  0  0  0  0  0  0  0  0
    1.6204   -9.9887   17.2935 C   0  0  0  0  0  0  0  0  0  0  0  0
    1.8931   -7.9265   16.2047 C   0  0  0  0  0  0  0  0  0  0  0  0
    2.4396   -9.0801   16.7132 C   0  0  0  0  0  0  0  0  0  0  0  0
   -0.2575   -8.6234   16.8582 C   0  0  0  0  0  0  0  0  0  0  0  0
    4.0614   -7.0367   27.0106 N   0  0  0  0  0  0  0  0  0  0  0  0
   -2.9133  -11.6279   18.7578 C   0  0  0  0  0  0  0  0  0  0  0  0
    4.5688  -10.1291   29.5758 C   0  0  0  0  0  0  0  0  0  0  0  0
    2.1008   -9.0410   29.1852 N   0  0  0  0  0  0  0  0  0  0  0  0
    3.4829  -10.5697   30.2091 N   0  0  0  0  0  0  0  0  0  0  0  0
   -0.3363   -6.1172   27.5628 C   0  0  0  0  0  0  0  0  0  0  0  0
    3.0331   -7.4400   27.6362 C   0  0  0  0  0  0  0  0  0  0  0  0
    5.4553   -8.5933   27.9644 C   0  0  0  0  0  0  0  0  0  0  0  0
   -2.3870  -12.8440   19.2512 C   0  0  0  0  0  0  0  0  0  0  0  0
    0.5331   -7.6964   16.2751 C   0  0  0  0  0  0  0  0  0  0  0  0
   -0.6740  -10.8737   18.0482 C   0  0  0  0  0  0  0  0  0  0  0  0
    5.6751  -10.5870   29.7637 O   0  0  0  0  0  0  0  0  0  0  0  0
    1.7612   -5.6483   26.7172 C   0  0  0  0  0  0  0  0  0  0  0  0
    0.2221   -9.8326   17.4055 C   0  0  0  0  0  0  0  0  0  0  0  0
    4.3850   -9.0730   28.6745 C   0  0  0  0  0  0  0  0  0  0  0  0
  1  7  4  0
  1 22  4  0
  2 17  4  0
  2 20  4  0
  2 28  4  0
  3  6  1  0
  3 19  1  0
  4 19  1  0
  4 26  1  0
  5 17  4  0
  5 18  4  0
  6 20  1  0
  6 26  1  0
  7 24  4  0
  8 15  4  0
  8 24  4  0
  9 14  4  0
  9 21  4  0
 10 12  4  0
 10 27  4  0
 11 12  4  0
 11 23  4  0
 13 23  4  0
 13 27  4  0
 14 20  4  0
 15 22  4  0
 16 18  4  0
 16 25  2  0
 16 28  4  0
 21 28  4  0
 24 27  1  0
M  END
$$$$

 Created by Python create_sdf_string function

 28 31  0  0  0  0  0  0  0  0999 V2000
   -1.0054  -13.0622   19.1198 C   0  0  0  0  0  0  0  0  0  0  0  0
    3.1478   -8.5360   28.5161 C   0  0  0  0  0  0  0  0  0  0  0  0
    0.5798   -7.1906   27.9330 C   0  0  0  0  0  0  0  0  0  0  0  0
    0.3978   -5.1561   26.6955 C   0  0  0  0  0  0  0  0  0  0  0  0
    2.3063  -10.0533   30.0125 C   0  0  0  0  0  0  0  0  0  0  0  0
    1.8591   -6.8254   27.4685 N   0  0  0  0  0  0  0  0  0  0  0  0
   -0.2167  -12.1055   18.5568 C   0  0  0  0  0  0  0  0  0  0  0  0
   -2.0661  -10.6994   18.1916 C   0  0  0  0  0  0  0  0  0  0  0  0
    5.2703   -7.5691   27.1123 C   0  0  0  0  0  0  0  0  0  0  0  0
    1.6204   -9.9887   17.2935 C   0  0  0  0  0  0  0  0  0  0  0  0
    1.8931   -7.9265   16.2047 C   0  0  0  0  0  0  0  0  0  0  0  0
    2.4396   -9.0801   16.7132 C   0  0  0  0  0  0  0  0  0  0  0  0
   -0.2575   -8.6234   16.8582 C   0  0  0  0  0  0  0  0  0  0  0  0
    4.0614   -7.0367   27.0106 N   0  0  0  0  0  0  0  0  0  0  0  0
   -2.9133  -11.6279   18.7578 C   0  0  0  0  0  0  0  0  0  0  0  0
    4.5688  -10.1291   29.5758 C   0  0  0  0  0  0  0  0  0  0  0  0
    2.1008   -9.0410   29.1852 N   0  0  0  0  0  0  0  0  0  0  0  0
    3.4829  -10.5697   30.2091 N   0  0  0  0  0  0  0  0  0  0  0  0
   -0.3363   -6.1172   27.5628 C   0  0  0  0  0  0  0  0  0  0  0  0
    3.0331   -7.4400   27.6362 C   0  0  0  0  0  0  0  0  0  0  0  0
    5.4553   -8.5933   27.9644 C   0  0  0  0  0  0  0  0  0  0  0  0
   -2.3870  -12.8440   19.2512 C   0  0  0  0  0  0  0  0  0  0  0  0
    0.5331   -7.6964   16.2751 C   0  0  0  0  0  0  0  0  0  0  0  0
   -0.6740  -10.8737   18.0482 C   0  0  0  0  0  0  0  0  0  0  0  0
    5.6751  -10.5870   29.7637 O   0  0  0  0  0  0  0  0  0  0  0  0
    1.7612   -5.6483   26.7172 C   0  0  0  0  0  0  0  0  0  0  0  0
    0.2221   -9.8326   17.4055 C   0  0  0  0  0  0  0  0  0  0  0  0
    4.3850   -9.0730   28.6745 C   0  0  0  0  0  0  0  0  0  0  0  0
  1  7  4  0
  1 22  4  0
  2 17  4  0
  2 20  4  0
  2 28  4  0
  3  6  1  0
  3 19  1  0
  4 19  1  0
  4 26  1  0
  5 17  4  0
  5 18  4  0
  6 20  1  0
  6 26  1  0
  7 24  4  0
  8 15  4  0
  8 24  4  0
  9 14  4  0
  9 21  4  0
 10 12  4  0
 10 27  4  0
 11 12  4  0
 11 23  4  0
 13 23  4  0
 13 27  4  0
 14 20  4  0
 15 22  4  0
 16 18  4  0
 16 25  2  0
 16 28  4  0
 21 28  4  0
 24 27  1  0
M  END
$$$$

 Created by Python create_sdf_string function

 28 31  0  0  0  0  0  0  0  0999 V2000
   -1.0054  -13.0622   19.1198 C   0  0  0  0  0  0  0  0  0  0  0  0
    3.1478   -8.5360   28.5161 C   0  0  0  0  0  0  0  0  0  0  0  0
    0.5798   -7.1906   27.9330 C   0  0  0  0  0  0  0  0  0  0  0  0
    0.3978   -5.1561   26.6955 C   0  0  0  0  0  0  0  0  0  0  0  0
    2.3063  -10.0533   30.0125 C   0  0  0  0  0  0  0  0  0  0  0  0
    1.8591   -6.8254   27.4685 N   0  0  0  0  0  0  0  0  0  0  0  0
   -0.2167  -12.1055   18.5568 C   0  0  0  0  0  0  0  0  0  0  0  0
   -2.0661  -10.6994   18.1916 C   0  0  0  0  0  0  0  0  0  0  0  0
    5.2703   -7.5691   27.1123 C   0  0  0  0  0  0  0  0  0  0  0  0
    1.6204   -9.9887   17.2935 C   0  0  0  0  0  0  0  0  0  0  0  0
    1.8931   -7.9265   16.2047 C   0  0  0  0  0  0  0  0  0  0  0  0
    2.4396   -9.0801   16.7132 C   0  0  0  0  0  0  0  0  0  0  0  0
   -0.2575   -8.6234   16.8582 C   0  0  0  0  0  0  0  0  0  0  0  0
    4.0614   -7.0367   27.0106 N   0  0  0  0  0  0  0  0  0  0  0  0
   -2.9133  -11.6279   18.7578 C   0  0  0  0  0  0  0  0  0  0  0  0
    4.5688  -10.1291   29.5758 C   0  0  0  0  0  0  0  0  0  0  0  0
    2.1008   -9.0410   29.1852 N   0  0  0  0  0  0  0  0  0  0  0  0
    3.4829  -10.5697   30.2091 N   0  0  0  0  0  0  0  0  0  0  0  0
   -0.3363   -6.1172   27.5628 C   0  0  0  0  0  0  0  0  0  0  0  0
    3.0331   -7.4400   27.6362 C   0  0  0  0  0  0  0  0  0  0  0  0
    5.4553   -8.5933   27.9644 C   0  0  0  0  0  0  0  0  0  0  0  0
   -2.3870  -12.8440   19.2512 C   0  0  0  0  0  0  0  0  0  0  0  0
    0.5331   -7.6964   16.2751 C   0  0  0  0  0  0  0  0  0  0  0  0
   -0.6740  -10.8737   18.0482 C   0  0  0  0  0  0  0  0  0  0  0  0
    5.6751  -10.5870   29.7637 O   0  0  0  0  0  0  0  0  0  0  0  0
    1.7612   -5.6483   26.7172 C   0  0  0  0  0  0  0  0  0  0  0  0
    0.2221   -9.8326   17.4055 C   0  0  0  0  0  0  0  0  0  0  0  0
    4.3850   -9.0730   28.6745 C   0  0  0  0  0  0  0  0  0  0  0  0
  1  7  4  0
  1 22  4  0
  2 17  4  0
  2 20  4  0
  2 28  4  0
  3  6  1  0
  3 19  1  0
  4 19  1  0
  4 26  1  0
  5 17  4  0
  5 18  4  0
  6 20  1  0
  6 26  1  0
  7 24  4  0
  8 15  4  0
  8 24  4  0
  9 14  4  0
  9 21  4  0
 10 12  4  0
 10 27  4  0
 11 12  4  0
 11 23  4  0
 13 23  4  0
 13 27  4  0
 14 20  4  0
 15 22  4  0
 16 18  4  0
 16 25  2  0
 16 28  4  0
 21 28  4  0
 24 27  1  0
M  END
$$$$

 Created by Python create_sdf_string function

 28 31  0  0  0  0  0  0  0  0999 V2000
   -1.0054  -13.0622   19.1198 C   0  0  0  0  0  0  0  0  0  0  0  0
    3.1478   -8.5360   28.5161 C   0  0  0  0  0  0  0  0  0  0  0  0
    0.5798   -7.1906   27.9330 C   0  0  0  0  0  0  0  0  0  0  0  0
    0.3978   -5.1561   26.6955 C   0  0  0  0  0  0  0  0  0  0  0  0
    2.3063  -10.0533   30.0125 C   0  0  0  0  0  0  0  0  0  0  0  0
    1.8591   -6.8254   27.4685 N   0  0  0  0  0  0  0  0  0  0  0  0
   -0.2167  -12.1055   18.5568 C   0  0  0  0  0  0  0  0  0  0  0  0
   -2.0661  -10.6994   18.1916 C   0  0  0  0  0  0  0  0  0  0  0  0
    5.2703   -7.5691   27.1123 C   0  0  0  0  0  0  0  0  0  0  0  0
    1.6204   -9.9887   17.2935 C   0  0  0  0  0  0  0  0  0  0  0  0
    1.8931   -7.9265   16.2047 C   0  0  0  0  0  0  0  0  0  0  0  0
    2.4396   -9.0801   16.7132 C   0  0  0  0  0  0  0  0  0  0  0  0
   -0.2575   -8.6234   16.8582 C   0  0  0  0  0  0  0  0  0  0  0  0
    4.0614   -7.0367   27.0106 N   0  0  0  0  0  0  0  0  0  0  0  0
   -2.9133  -11.6279   18.7578 C   0  0  0  0  0  0  0  0  0  0  0  0
    4.5688  -10.1291   29.5758 C   0  0  0  0  0  0  0  0  0  0  0  0
    2.1008   -9.0410   29.1852 N   0  0  0  0  0  0  0  0  0  0  0  0
    3.4829  -10.5697   30.2091 N   0  0  0  0  0  0  0  0  0  0  0  0
   -0.3363   -6.1172   27.5628 C   0  0  0  0  0  0  0  0  0  0  0  0
    3.0331   -7.4400   27.6362 C   0  0  0  0  0  0  0  0  0  0  0  0
    5.4553   -8.5933   27.9644 C   0  0  0  0  0  0  0  0  0  0  0  0
   -2.3870  -12.8440   19.2512 C   0  0  0  0  0  0  0  0  0  0  0  0
    0.5331   -7.6964   16.2751 C   0  0  0  0  0  0  0  0  0  0  0  0
   -0.6740  -10.8737   18.0482 C   0  0  0  0  0  0  0  0  0  0  0  0
    5.6751  -10.5870   29.7637 O   0  0  0  0  0  0  0  0  0  0  0  0
    1.7612   -5.6483   26.7172 C   0  0  0  0  0  0  0  0  0  0  0  0
    0.2221   -9.8326   17.4055 C   0  0  0  0  0  0  0  0  0  0  0  0
    4.3850   -9.0730   28.6745 C   0  0  0  0  0  0  0  0  0  0  0  0
  1  7  4  0
  1 22  4  0
  2 17  4  0
  2 20  4  0
  2 28  4  0
  3  6  1  0
  3 19  1  0
  4 19  1  0
  4 26  1  0
  5 17  4  0
  5 18  4  0
  6 20  1  0
  6 26  1  0
  7 24  4  0
  8 15  4  0
  8 24  4  0
  9 14  4  0
  9 21  4  0
 10 12  4  0
 10 27  4  0
 11 12  4  0
 11 23  4  0
 13 23  4  0
 13 27  4  0
 14 20  4  0
 15 22  4  0
 16 18  4  0
 16 25  2  0
 16 28  4  0
 21 28  4  0
 24 27  1  0
M  END
$$$$

 Created by Python create_sdf_string function

 28 31  0  0  0  0  0  0  0  0999 V2000
   -1.0054  -13.0622   19.1198 C   0  0  0  0  0  0  0  0  0  0  0  0
    3.1478   -8.5360   28.5161 C   0  0  0  0  0  0  0  0  0  0  0  0
    0.5798   -7.1906   27.9330 C   0  0  0  0  0  0  0  0  0  0  0  0
    0.3978   -5.1561   26.6955 C   0  0  0  0  0  0  0  0  0  0  0  0
    2.3063  -10.0533   30.0125 C   0  0  0  0  0  0  0  0  0  0  0  0
    1.8591   -6.8254   27.4685 N   0  0  0  0  0  0  0  0  0  0  0  0
   -0.2167  -12.1055   18.5568 C   0  0  0  0  0  0  0  0  0  0  0  0
   -2.0661  -10.6994   18.1916 C   0  0  0  0  0  0  0  0  0  0  0  0
    5.2703   -7.5691   27.1123 C   0  0  0  0  0  0  0  0  0  0  0  0
    1.6204   -9.9887   17.2935 C   0  0  0  0  0  0  0  0  0  0  0  0
    1.8931   -7.9265   16.2047 C   0  0  0  0  0  0  0  0  0  0  0  0
    2.4396   -9.0801   16.7132 C   0  0  0  0  0  0  0  0  0  0  0  0
   -0.2575   -8.6234   16.8582 C   0  0  0  0  0  0  0  0  0  0  0  0
    4.0614   -7.0367   27.0106 N   0  0  0  0  0  0  0  0  0  0  0  0
   -2.9133  -11.6279   18.7578 C   0  0  0  0  0  0  0  0  0  0  0  0
    4.5688  -10.1291   29.5758 C   0  0  0  0  0  0  0  0  0  0  0  0
    2.1008   -9.0410   29.1852 N   0  0  0  0  0  0  0  0  0  0  0  0
    3.4829  -10.5697   30.2091 N   0  0  0  0  0  0  0  0  0  0  0  0
   -0.3363   -6.1172   27.5628 C   0  0  0  0  0  0  0  0  0  0  0  0
    3.0331   -7.4400   27.6362 C   0  0  0  0  0  0  0  0  0  0  0  0
    5.4553   -8.5933   27.9644 C   0  0  0  0  0  0  0  0  0  0  0  0
   -2.3870  -12.8440   19.2512 C   0  0  0  0  0  0  0  0  0  0  0  0
    0.5331   -7.6964   16.2751 C   0  0  0  0  0  0  0  0  0  0  0  0
   -0.6740  -10.8737   18.0482 C   0  0  0  0  0  0  0  0  0  0  0  0
    5.6751  -10.5870   29.7637 O   0  0  0  0  0  0  0  0  0  0  0  0
    1.7612   -5.6483   26.7172 C   0  0  0  0  0  0  0  0  0  0  0  0
    0.2221   -9.8326   17.4055 C   0  0  0  0  0  0  0  0  0  0  0  0
    4.3850   -9.0730   28.6745 C   0  0  0  0  0  0  0  0  0  0  0  0
  1  7  4  0
  1 22  4  0
  2 17  4  0
  2 20  4  0
  2 28  4  0
  3  6  1  0
  3 19  1  0
  4 19  1  0
  4 26  1  0
  5 17  4  0
  5 18  4  0
  6 20  1  0
  6 26  1  0
  7 24  4  0
  8 15  4  0
  8 24  4  0
  9 14  4  0
  9 21  4  0
 10 12  4  0
 10 27  4  0
 11 12  4  0
 11 23  4  0
 13 23  4  0
 13 27  4  0
 14 20  4  0
 15 22  4  0
 16 18  4  0
 16 25  2  0
 16 28  4  0
 21 28  4  0
 24 27  1  0
M  END
$$$$

 Created by Python create_sdf_string function

 28 31  0  0  0  0  0  0  0  0999 V2000
   -1.0054  -13.0622   19.1198 C   0  0  0  0  0  0  0  0  0  0  0  0
    3.1478   -8.5360   28.5161 C   0  0  0  0  0  0  0  0  0  0  0  0
    0.5798   -7.1906   27.9330 C   0  0  0  0  0  0  0  0  0  0  0  0
    0.3978   -5.1561   26.6955 C   0  0  0  0  0  0  0  0  0  0  0  0
    2.3063  -10.0533   30.0125 C   0  0  0  0  0  0  0  0  0  0  0  0
    1.8591   -6.8254   27.4685 N   0  0  0  0  0  0  0  0  0  0  0  0
   -0.2167  -12.1055   18.5568 C   0  0  0  0  0  0  0  0  0  0  0  0
   -2.0661  -10.6994   18.1916 C   0  0  0  0  0  0  0  0  0  0  0  0
    5.2703   -7.5691   27.1123 C   0  0  0  0  0  0  0  0  0  0  0  0
    1.6204   -9.9887   17.2935 C   0  0  0  0  0  0  0  0  0  0  0  0
    1.8931   -7.9265   16.2047 C   0  0  0  0  0  0  0  0  0  0  0  0
    2.4396   -9.0801   16.7132 C   0  0  0  0  0  0  0  0  0  0  0  0
   -0.2575   -8.6234   16.8582 C   0  0  0  0  0  0  0  0  0  0  0  0
    4.0614   -7.0367   27.0106 N   0  0  0  0  0  0  0  0  0  0  0  0
   -2.9133  -11.6279   18.7578 C   0  0  0  0  0  0  0  0  0  0  0  0
    4.5688  -10.1291   29.5758 C   0  0  0  0  0  0  0  0  0  0  0  0
    2.1008   -9.0410   29.1852 N   0  0  0  0  0  0  0  0  0  0  0  0
    3.4829  -10.5697   30.2091 N   0  0  0  0  0  0  0  0  0  0  0  0
   -0.3363   -6.1172   27.5628 C   0  0  0  0  0  0  0  0  0  0  0  0
    3.0331   -7.4400   27.6362 C   0  0  0  0  0  0  0  0  0  0  0  0
    5.4553   -8.5933   27.9644 C   0  0  0  0  0  0  0  0  0  0  0  0
   -2.3870  -12.8440   19.2512 C   0  0  0  0  0  0  0  0  0  0  0  0
    0.5331   -7.6964   16.2751 C   0  0  0  0  0  0  0  0  0  0  0  0
   -0.6740  -10.8737   18.0482 C   0  0  0  0  0  0  0  0  0  0  0  0
    5.6751  -10.5870   29.7637 O   0  0  0  0  0  0  0  0  0  0  0  0
    1.7612   -5.6483   26.7172 C   0  0  0  0  0  0  0  0  0  0  0  0
    0.2221   -9.8326   17.4055 C   0  0  0  0  0  0  0  0  0  0  0  0
    4.3850   -9.0730   28.6745 C   0  0  0  0  0  0  0  0  0  0  0  0
  1  7  4  0
  1 22  4  0
  2 17  4  0
  2 20  4  0
  2 28  4  0
  3  6  1  0
  3 19  1  0
  4 19  1  0
  4 26  1  0
  5 17  4  0
  5 18  4  0
  6 20  1  0
  6 26  1  0
  7 24  4  0
  8 15  4  0
  8 24  4  0
  9 14  4  0
  9 21  4  0
 10 12  4  0
 10 27  4  0
 11 12  4  0
 11 23  4  0
 13 23  4  0
 13 27  4  0
 14 20  4  0
 15 22  4  0
 16 18  4  0
 16 25  2  0
 16 28  4  0
 21 28  4  0
 24 27  1  0
M  END
$$$$

 Created by Python create_sdf_string function

 28 31  0  0  0  0  0  0  0  0999 V2000
   -1.0054  -13.0622   19.1198 C   0  0  0  0  0  0  0  0  0  0  0  0
    3.1478   -8.5360   28.5161 C   0  0  0  0  0  0  0  0  0  0  0  0
    0.5798   -7.1906   27.9330 C   0  0  0  0  0  0  0  0  0  0  0  0
    0.3978   -5.1561   26.6955 C   0  0  0  0  0  0  0  0  0  0  0  0
    2.3063  -10.0533   30.0125 C   0  0  0  0  0  0  0  0  0  0  0  0
    1.8591   -6.8254   27.4685 N   0  0  0  0  0  0  0  0  0  0  0  0
   -0.2167  -12.1055   18.5568 C   0  0  0  0  0  0  0  0  0  0  0  0
   -2.0661  -10.6994   18.1916 C   0  0  0  0  0  0  0  0  0  0  0  0
    5.2703   -7.5691   27.1123 C   0  0  0  0  0  0  0  0  0  0  0  0
    1.6204   -9.9887   17.2935 C   0  0  0  0  0  0  0  0  0  0  0  0
    1.8931   -7.9265   16.2047 C   0  0  0  0  0  0  0  0  0  0  0  0
    2.4396   -9.0801   16.7132 C   0  0  0  0  0  0  0  0  0  0  0  0
   -0.2575   -8.6234   16.8582 C   0  0  0  0  0  0  0  0  0  0  0  0
    4.0614   -7.0367   27.0106 N   0  0  0  0  0  0  0  0  0  0  0  0
   -2.9133  -11.6279   18.7578 C   0  0  0  0  0  0  0  0  0  0  0  0
    4.5688  -10.1291   29.5758 C   0  0  0  0  0  0  0  0  0  0  0  0
    2.1008   -9.0410   29.1852 N   0  0  0  0  0  0  0  0  0  0  0  0
    3.4829  -10.5697   30.2091 N   0  0  0  0  0  0  0  0  0  0  0  0
   -0.3363   -6.1172   27.5628 C   0  0  0  0  0  0  0  0  0  0  0  0
    3.0331   -7.4400   27.6362 C   0  0  0  0  0  0  0  0  0  0  0  0
    5.4553   -8.5933   27.9644 C   0  0  0  0  0  0  0  0  0  0  0  0
   -2.3870  -12.8440   19.2512 C   0  0  0  0  0  0  0  0  0  0  0  0
    0.5331   -7.6964   16.2751 C   0  0  0  0  0  0  0  0  0  0  0  0
   -0.6740  -10.8737   18.0482 C   0  0  0  0  0  0  0  0  0  0  0  0
    5.6751  -10.5870   29.7637 O   0  0  0  0  0  0  0  0  0  0  0  0
    1.7612   -5.6483   26.7172 C   0  0  0  0  0  0  0  0  0  0  0  0
    0.2221   -9.8326   17.4055 C   0  0  0  0  0  0  0  0  0  0  0  0
    4.3850   -9.0730   28.6745 C   0  0  0  0  0  0  0  0  0  0  0  0
  1  7  4  0
  1 22  4  0
  2 17  4  0
  2 20  4  0
  2 28  4  0
  3  6  1  0
  3 19  1  0
  4 19  1  0
  4 26  1  0
  5 17  4  0
  5 18  4  0
  6 20  1  0
  6 26  1  0
  7 24  4  0
  8 15  4  0
  8 24  4  0
  9 14  4  0
  9 21  4  0
 10 12  4  0
 10 27  4  0
 11 12  4  0
 11 23  4  0
 13 23  4  0
 13 27  4  0
 14 20  4  0
 15 22  4  0
 16 18  4  0
 16 25  2  0
 16 28  4  0
 21 28  4  0
 24 27  1  0
M  END
$$$$

 Created by Python create_sdf_string function

 28 31  0  0  0  0  0  0  0  0999 V2000
   -1.0054  -13.0622   19.1198 C   0  0  0  0  0  0  0  0  0  0  0  0
    3.1478   -8.5360   28.5161 C   0  0  0  0  0  0  0  0  0  0  0  0
    0.5798   -7.1906   27.9330 C   0  0  0  0  0  0  0  0  0  0  0  0
    0.3978   -5.1561   26.6955 C   0  0  0  0  0  0  0  0  0  0  0  0
    2.3063  -10.0533   30.0125 C   0  0  0  0  0  0  0  0  0  0  0  0
    1.8591   -6.8254   27.4685 N   0  0  0  0  0  0  0  0  0  0  0  0
   -0.2167  -12.1055   18.5568 C   0  0  0  0  0  0  0  0  0  0  0  0
   -2.0661  -10.6994   18.1916 C   0  0  0  0  0  0  0  0  0  0  0  0
    5.2703   -7.5691   27.1123 C   0  0  0  0  0  0  0  0  0  0  0  0
    1.6204   -9.9887   17.2935 C   0  0  0  0  0  0  0  0  0  0  0  0
    1.8931   -7.9265   16.2047 C   0  0  0  0  0  0  0  0  0  0  0  0
    2.4396   -9.0801   16.7132 C   0  0  0  0  0  0  0  0  0  0  0  0
   -0.2575   -8.6234   16.8582 C   0  0  0  0  0  0  0  0  0  0  0  0
    4.0614   -7.0367   27.0106 N   0  0  0  0  0  0  0  0  0  0  0  0
   -2.9133  -11.6279   18.7578 C   0  0  0  0  0  0  0  0  0  0  0  0
    4.5688  -10.1291   29.5758 C   0  0  0  0  0  0  0  0  0  0  0  0
    2.1008   -9.0410   29.1852 N   0  0  0  0  0  0  0  0  0  0  0  0
    3.4829  -10.5697   30.2091 N   0  0  0  0  0  0  0  0  0  0  0  0
   -0.3363   -6.1172   27.5628 C   0  0  0  0  0  0  0  0  0  0  0  0
    3.0331   -7.4400   27.6362 C   0  0  0  0  0  0  0  0  0  0  0  0
    5.4553   -8.5933   27.9644 C   0  0  0  0  0  0  0  0  0  0  0  0
   -2.3870  -12.8440   19.2512 C   0  0  0  0  0  0  0  0  0  0  0  0
    0.5331   -7.6964   16.2751 C   0  0  0  0  0  0  0  0  0  0  0  0
   -0.6740  -10.8737   18.0482 C   0  0  0  0  0  0  0  0  0  0  0  0
    5.6751  -10.5870   29.7637 O   0  0  0  0  0  0  0  0  0  0  0  0
    1.7612   -5.6483   26.7172 C   0  0  0  0  0  0  0  0  0  0  0  0
    0.2221   -9.8326   17.4055 C   0  0  0  0  0  0  0  0  0  0  0  0
    4.3850   -9.0730   28.6745 C   0  0  0  0  0  0  0  0  0  0  0  0
  1  7  4  0
  1 22  4  0
  2 17  4  0
  2 20  4  0
  2 28  4  0
  3  6  1  0
  3 19  1  0
  4 19  1  0
  4 26  1  0
  5 17  4  0
  5 18  4  0
  6 20  1  0
  6 26  1  0
  7 24  4  0
  8 15  4  0
  8 24  4  0
  9 14  4  0
  9 21  4  0
 10 12  4  0
 10 27  4  0
 11 12  4  0
 11 23  4  0
 13 23  4  0
 13 27  4  0
 14 20  4  0
 15 22  4  0
 16 18  4  0
 16 25  2  0
 16 28  4  0
 21 28  4  0
 24 27  1  0
M  END
$$$$

 Created by Python create_sdf_string function

 28 31  0  0  0  0  0  0  0  0999 V2000
   -1.0054  -13.0622   19.1198 C   0  0  0  0  0  0  0  0  0  0  0  0
    3.1478   -8.5360   28.5161 C   0  0  0  0  0  0  0  0  0  0  0  0
    0.5798   -7.1906   27.9330 C   0  0  0  0  0  0  0  0  0  0  0  0
    0.3978   -5.1561   26.6955 C   0  0  0  0  0  0  0  0  0  0  0  0
    2.3063  -10.0533   30.0125 C   0  0  0  0  0  0  0  0  0  0  0  0
    1.8591   -6.8254   27.4685 N   0  0  0  0  0  0  0  0  0  0  0  0
   -0.2167  -12.1055   18.5568 C   0  0  0  0  0  0  0  0  0  0  0  0
   -2.0661  -10.6994   18.1916 C   0  0  0  0  0  0  0  0  0  0  0  0
    5.2703   -7.5691   27.1123 C   0  0  0  0  0  0  0  0  0  0  0  0
    1.6204   -9.9887   17.2935 C   0  0  0  0  0  0  0  0  0  0  0  0
    1.8931   -7.9265   16.2047 C   0  0  0  0  0  0  0  0  0  0  0  0
    2.4396   -9.0801   16.7132 C   0  0  0  0  0  0  0  0  0  0  0  0
   -0.2575   -8.6234   16.8582 C   0  0  0  0  0  0  0  0  0  0  0  0
    4.0614   -7.0367   27.0106 N   0  0  0  0  0  0  0  0  0  0  0  0
   -2.9133  -11.6279   18.7578 C   0  0  0  0  0  0  0  0  0  0  0  0
    4.5688  -10.1291   29.5758 C   0  0  0  0  0  0  0  0  0  0  0  0
    2.1008   -9.0410   29.1852 N   0  0  0  0  0  0  0  0  0  0  0  0
    3.4829  -10.5697   30.2091 N   0  0  0  0  0  0  0  0  0  0  0  0
   -0.3363   -6.1172   27.5628 C   0  0  0  0  0  0  0  0  0  0  0  0
    3.0331   -7.4400   27.6362 C   0  0  0  0  0  0  0  0  0  0  0  0
    5.4553   -8.5933   27.9644 C   0  0  0  0  0  0  0  0  0  0  0  0
   -2.3870  -12.8440   19.2512 C   0  0  0  0  0  0  0  0  0  0  0  0
    0.5331   -7.6964   16.2751 C   0  0  0  0  0  0  0  0  0  0  0  0
   -0.6740  -10.8737   18.0482 C   0  0  0  0  0  0  0  0  0  0  0  0
    5.6751  -10.5870   29.7637 O   0  0  0  0  0  0  0  0  0  0  0  0
    1.7612   -5.6483   26.7172 C   0  0  0  0  0  0  0  0  0  0  0  0
    0.2221   -9.8326   17.4055 C   0  0  0  0  0  0  0  0  0  0  0  0
    4.3850   -9.0730   28.6745 C   0  0  0  0  0  0  0  0  0  0  0  0
  1  7  4  0
  1 22  4  0
  2 17  4  0
  2 20  4  0
  2 28  4  0
  3  6  1  0
  3 19  1  0
  4 19  1  0
  4 26  1  0
  5 17  4  0
  5 18  4  0
  6 20  1  0
  6 26  1  0
  7 24  4  0
  8 15  4  0
  8 24  4  0
  9 14  4  0
  9 21  4  0
 10 12  4  0
 10 27  4  0
 11 12  4  0
 11 23  4  0
 13 23  4  0
 13 27  4  0
 14 20  4  0
 15 22  4  0
 16 18  4  0
 16 25  2  0
 16 28  4  0
 21 28  4  0
 24 27  1  0
M  END
$$$$

 Created by Python create_sdf_string function

 28 31  0  0  0  0  0  0  0  0999 V2000
   -1.0054  -13.0622   19.1198 C   0  0  0  0  0  0  0  0  0  0  0  0
    3.1478   -8.5360   28.5161 C   0  0  0  0  0  0  0  0  0  0  0  0
    0.5798   -7.1906   27.9330 C   0  0  0  0  0  0  0  0  0  0  0  0
    0.3978   -5.1561   26.6955 C   0  0  0  0  0  0  0  0  0  0  0  0
    2.3063  -10.0533   30.0125 C   0  0  0  0  0  0  0  0  0  0  0  0
    1.8591   -6.8254   27.4685 N   0  0  0  0  0  0  0  0  0  0  0  0
   -0.2167  -12.1055   18.5568 C   0  0  0  0  0  0  0  0  0  0  0  0
   -2.0661  -10.6994   18.1916 C   0  0  0  0  0  0  0  0  0  0  0  0
    5.2703   -7.5691   27.1123 C   0  0  0  0  0  0  0  0  0  0  0  0
    1.6204   -9.9887   17.2935 C   0  0  0  0  0  0  0  0  0  0  0  0
    1.8931   -7.9265   16.2047 C   0  0  0  0  0  0  0  0  0  0  0  0
    2.4396   -9.0801   16.7132 C   0  0  0  0  0  0  0  0  0  0  0  0
   -0.2575   -8.6234   16.8582 C   0  0  0  0  0  0  0  0  0  0  0  0
    4.0614   -7.0367   27.0106 N   0  0  0  0  0  0  0  0  0  0  0  0
   -2.9133  -11.6279   18.7578 C   0  0  0  0  0  0  0  0  0  0  0  0
    4.5688  -10.1291   29.5758 C   0  0  0  0  0  0  0  0  0  0  0  0
    2.1008   -9.0410   29.1852 N   0  0  0  0  0  0  0  0  0  0  0  0
    3.4829  -10.5697   30.2091 N   0  0  0  0  0  0  0  0  0  0  0  0
   -0.3363   -6.1172   27.5628 C   0  0  0  0  0  0  0  0  0  0  0  0
    3.0331   -7.4400   27.6362 C   0  0  0  0  0  0  0  0  0  0  0  0
    5.4553   -8.5933   27.9644 C   0  0  0  0  0  0  0  0  0  0  0  0
   -2.3870  -12.8440   19.2512 C   0  0  0  0  0  0  0  0  0  0  0  0
    0.5331   -7.6964   16.2751 C   0  0  0  0  0  0  0  0  0  0  0  0
   -0.6740  -10.8737   18.0482 C   0  0  0  0  0  0  0  0  0  0  0  0
    5.6751  -10.5870   29.7637 O   0  0  0  0  0  0  0  0  0  0  0  0
    1.7612   -5.6483   26.7172 C   0  0  0  0  0  0  0  0  0  0  0  0
    0.2221   -9.8326   17.4055 C   0  0  0  0  0  0  0  0  0  0  0  0
    4.3850   -9.0730   28.6745 C   0  0  0  0  0  0  0  0  0  0  0  0
  1  7  4  0
  1 22  4  0
  2 17  4  0
  2 20  4  0
  2 28  4  0
  3  6  1  0
  3 19  1  0
  4 19  1  0
  4 26  1  0
  5 17  4  0
  5 18  4  0
  6 20  1  0
  6 26  1  0
  7 24  4  0
  8 15  4  0
  8 24  4  0
  9 14  4  0
  9 21  4  0
 10 12  4  0
 10 27  4  0
 11 12  4  0
 11 23  4  0
 13 23  4  0
 13 27  4  0
 14 20  4  0
 15 22  4  0
 16 18  4  0
 16 25  2  0
 16 28  4  0
 21 28  4  0
 24 27  1  0
M  END
$$$$

 Created by Python create_sdf_string function

 28 31  0  0  0  0  0  0  0  0999 V2000
   -1.0054  -13.0622   19.1198 C   0  0  0  0  0  0  0  0  0  0  0  0
    3.1478   -8.5360   28.5161 C   0  0  0  0  0  0  0  0  0  0  0  0
    0.5798   -7.1906   27.9330 C   0  0  0  0  0  0  0  0  0  0  0  0
    0.3978   -5.1561   26.6955 C   0  0  0  0  0  0  0  0  0  0  0  0
    2.3063  -10.0533   30.0125 C   0  0  0  0  0  0  0  0  0  0  0  0
    1.8591   -6.8254   27.4685 N   0  0  0  0  0  0  0  0  0  0  0  0
   -0.2167  -12.1055   18.5568 C   0  0  0  0  0  0  0  0  0  0  0  0
   -2.0661  -10.6994   18.1916 C   0  0  0  0  0  0  0  0  0  0  0  0
    5.2703   -7.5691   27.1123 C   0  0  0  0  0  0  0  0  0  0  0  0
    1.6204   -9.9887   17.2935 C   0  0  0  0  0  0  0  0  0  0  0  0
    1.8931   -7.9265   16.2047 C   0  0  0  0  0  0  0  0  0  0  0  0
    2.4396   -9.0801   16.7132 C   0  0  0  0  0  0  0  0  0  0  0  0
   -0.2575   -8.6234   16.8582 C   0  0  0  0  0  0  0  0  0  0  0  0
    4.0614   -7.0367   27.0106 N   0  0  0  0  0  0  0  0  0  0  0  0
   -2.9133  -11.6279   18.7578 C   0  0  0  0  0  0  0  0  0  0  0  0
    4.5688  -10.1291   29.5758 C   0  0  0  0  0  0  0  0  0  0  0  0
    2.1008   -9.0410   29.1852 N   0  0  0  0  0  0  0  0  0  0  0  0
    3.4829  -10.5697   30.2091 N   0  0  0  0  0  0  0  0  0  0  0  0
   -0.3363   -6.1172   27.5628 C   0  0  0  0  0  0  0  0  0  0  0  0
    3.0331   -7.4400   27.6362 C   0  0  0  0  0  0  0  0  0  0  0  0
    5.4553   -8.5933   27.9644 C   0  0  0  0  0  0  0  0  0  0  0  0
   -2.3870  -12.8440   19.2512 C   0  0  0  0  0  0  0  0  0  0  0  0
    0.5331   -7.6964   16.2751 C   0  0  0  0  0  0  0  0  0  0  0  0
   -0.6740  -10.8737   18.0482 C   0  0  0  0  0  0  0  0  0  0  0  0
    5.6751  -10.5870   29.7637 O   0  0  0  0  0  0  0  0  0  0  0  0
    1.7612   -5.6483   26.7172 C   0  0  0  0  0  0  0  0  0  0  0  0
    0.2221   -9.8326   17.4055 C   0  0  0  0  0  0  0  0  0  0  0  0
    4.3850   -9.0730   28.6745 C   0  0  0  0  0  0  0  0  0  0  0  0
  1  7  4  0
  1 22  4  0
  2 17  4  0
  2 20  4  0
  2 28  4  0
  3  6  1  0
  3 19  1  0
  4 19  1  0
  4 26  1  0
  5 17  4  0
  5 18  4  0
  6 20  1  0
  6 26  1  0
  7 24  4  0
  8 15  4  0
  8 24  4  0
  9 14  4  0
  9 21  4  0
 10 12  4  0
 10 27  4  0
 11 12  4  0
 11 23  4  0
 13 23  4  0
 13 27  4  0
 14 20  4  0
 15 22  4  0
 16 18  4  0
 16 25  2  0
 16 28  4  0
 21 28  4  0
 24 27  1  0
M  END
$$$$

 Created by Python create_sdf_string function

 28 31  0  0  0  0  0  0  0  0999 V2000
   -1.0054  -13.0622   19.1198 C   0  0  0  0  0  0  0  0  0  0  0  0
    3.1478   -8.5360   28.5161 C   0  0  0  0  0  0  0  0  0  0  0  0
    0.5798   -7.1906   27.9330 C   0  0  0  0  0  0  0  0  0  0  0  0
    0.3978   -5.1561   26.6955 C   0  0  0  0  0  0  0  0  0  0  0  0
    2.3063  -10.0533   30.0125 C   0  0  0  0  0  0  0  0  0  0  0  0
    1.8591   -6.8254   27.4685 N   0  0  0  0  0  0  0  0  0  0  0  0
   -0.2167  -12.1055   18.5568 C   0  0  0  0  0  0  0  0  0  0  0  0
   -2.0661  -10.6994   18.1916 C   0  0  0  0  0  0  0  0  0  0  0  0
    5.2703   -7.5691   27.1123 C   0  0  0  0  0  0  0  0  0  0  0  0
    1.6204   -9.9887   17.2935 C   0  0  0  0  0  0  0  0  0  0  0  0
    1.8931   -7.9265   16.2047 C   0  0  0  0  0  0  0  0  0  0  0  0
    2.4396   -9.0801   16.7132 C   0  0  0  0  0  0  0  0  0  0  0  0
   -0.2575   -8.6234   16.8582 C   0  0  0  0  0  0  0  0  0  0  0  0
    4.0614   -7.0367   27.0106 N   0  0  0  0  0  0  0  0  0  0  0  0
   -2.9133  -11.6279   18.7578 C   0  0  0  0  0  0  0  0  0  0  0  0
    4.5688  -10.1291   29.5758 C   0  0  0  0  0  0  0  0  0  0  0  0
    2.1008   -9.0410   29.1852 N   0  0  0  0  0  0  0  0  0  0  0  0
    3.4829  -10.5697   30.2091 N   0  0  0  0  0  0  0  0  0  0  0  0
   -0.3363   -6.1172   27.5628 C   0  0  0  0  0  0  0  0  0  0  0  0
    3.0331   -7.4400   27.6362 C   0  0  0  0  0  0  0  0  0  0  0  0
    5.4553   -8.5933   27.9644 C   0  0  0  0  0  0  0  0  0  0  0  0
   -2.3870  -12.8440   19.2512 C   0  0  0  0  0  0  0  0  0  0  0  0
    0.5331   -7.6964   16.2751 C   0  0  0  0  0  0  0  0  0  0  0  0
   -0.6740  -10.8737   18.0482 C   0  0  0  0  0  0  0  0  0  0  0  0
    5.6751  -10.5870   29.7637 O   0  0  0  0  0  0  0  0  0  0  0  0
    1.7612   -5.6483   26.7172 C   0  0  0  0  0  0  0  0  0  0  0  0
    0.2221   -9.8326   17.4055 C   0  0  0  0  0  0  0  0  0  0  0  0
    4.3850   -9.0730   28.6745 C   0  0  0  0  0  0  0  0  0  0  0  0
  1  7  4  0
  1 22  4  0
  2 17  4  0
  2 20  4  0
  2 28  4  0
  3  6  1  0
  3 19  1  0
  4 19  1  0
  4 26  1  0
  5 17  4  0
  5 18  4  0
  6 20  1  0
  6 26  1  0
  7 24  4  0
  8 15  4  0
  8 24  4  0
  9 14  4  0
  9 21  4  0
 10 12  4  0
 10 27  4  0
 11 12  4  0
 11 23  4  0
 13 23  4  0
 13 27  4  0
 14 20  4  0
 15 22  4  0
 16 18  4  0
 16 25  2  0
 16 28  4  0
 21 28  4  0
 24 27  1  0
M  END
$$$$

 Created by Python create_sdf_string function

 28 31  0  0  0  0  0  0  0  0999 V2000
   -1.0054  -13.0622   19.1198 C   0  0  0  0  0  0  0  0  0  0  0  0
    3.1478   -8.5360   28.5161 C   0  0  0  0  0  0  0  0  0  0  0  0
    0.5798   -7.1906   27.9330 C   0  0  0  0  0  0  0  0  0  0  0  0
    0.3978   -5.1561   26.6955 C   0  0  0  0  0  0  0  0  0  0  0  0
    2.3063  -10.0533   30.0125 C   0  0  0  0  0  0  0  0  0  0  0  0
    1.8591   -6.8254   27.4685 N   0  0  0  0  0  0  0  0  0  0  0  0
   -0.2167  -12.1055   18.5568 C   0  0  0  0  0  0  0  0  0  0  0  0
   -2.0661  -10.6994   18.1916 C   0  0  0  0  0  0  0  0  0  0  0  0
    5.2703   -7.5691   27.1123 C   0  0  0  0  0  0  0  0  0  0  0  0
    1.6204   -9.9887   17.2935 C   0  0  0  0  0  0  0  0  0  0  0  0
    1.8931   -7.9265   16.2047 C   0  0  0  0  0  0  0  0  0  0  0  0
    2.4396   -9.0801   16.7132 C   0  0  0  0  0  0  0  0  0  0  0  0
   -0.2575   -8.6234   16.8582 C   0  0  0  0  0  0  0  0  0  0  0  0
    4.0614   -7.0367   27.0106 N   0  0  0  0  0  0  0  0  0  0  0  0
   -2.9133  -11.6279   18.7578 C   0  0  0  0  0  0  0  0  0  0  0  0
    4.5688  -10.1291   29.5758 C   0  0  0  0  0  0  0  0  0  0  0  0
    2.1008   -9.0410   29.1852 N   0  0  0  0  0  0  0  0  0  0  0  0
    3.4829  -10.5697   30.2091 N   0  0  0  0  0  0  0  0  0  0  0  0
   -0.3363   -6.1172   27.5628 C   0  0  0  0  0  0  0  0  0  0  0  0
    3.0331   -7.4400   27.6362 C   0  0  0  0  0  0  0  0  0  0  0  0
    5.4553   -8.5933   27.9644 C   0  0  0  0  0  0  0  0  0  0  0  0
   -2.3870  -12.8440   19.2512 C   0  0  0  0  0  0  0  0  0  0  0  0
    0.5331   -7.6964   16.2751 C   0  0  0  0  0  0  0  0  0  0  0  0
   -0.6740  -10.8737   18.0482 C   0  0  0  0  0  0  0  0  0  0  0  0
    5.6751  -10.5870   29.7637 O   0  0  0  0  0  0  0  0  0  0  0  0
    1.7612   -5.6483   26.7172 C   0  0  0  0  0  0  0  0  0  0  0  0
    0.2221   -9.8326   17.4055 C   0  0  0  0  0  0  0  0  0  0  0  0
    4.3850   -9.0730   28.6745 C   0  0  0  0  0  0  0  0  0  0  0  0
  1  7  4  0
  1 22  4  0
  2 17  4  0
  2 20  4  0
  2 28  4  0
  3  6  1  0
  3 19  1  0
  4 19  1  0
  4 26  1  0
  5 17  4  0
  5 18  4  0
  6 20  1  0
  6 26  1  0
  7 24  4  0
  8 15  4  0
  8 24  4  0
  9 14  4  0
  9 21  4  0
 10 12  4  0
 10 27  4  0
 11 12  4  0
 11 23  4  0
 13 23  4  0
 13 27  4  0
 14 20  4  0
 15 22  4  0
 16 18  4  0
 16 25  2  0
 16 28  4  0
 21 28  4  0
 24 27  1  0
M  END
$$$$

 Created by Python create_sdf_string function

 28 31  0  0  0  0  0  0  0  0999 V2000
   -1.0054  -13.0622   19.1198 C   0  0  0  0  0  0  0  0  0  0  0  0
    3.1478   -8.5360   28.5161 C   0  0  0  0  0  0  0  0  0  0  0  0
    0.5798   -7.1906   27.9330 C   0  0  0  0  0  0  0  0  0  0  0  0
    0.3978   -5.1561   26.6955 C   0  0  0  0  0  0  0  0  0  0  0  0
    2.3063  -10.0533   30.0125 C   0  0  0  0  0  0  0  0  0  0  0  0
    1.8591   -6.8254   27.4685 N   0  0  0  0  0  0  0  0  0  0  0  0
   -0.2167  -12.1055   18.5568 C   0  0  0  0  0  0  0  0  0  0  0  0
   -2.0661  -10.6994   18.1916 C   0  0  0  0  0  0  0  0  0  0  0  0
    5.2703   -7.5691   27.1123 C   0  0  0  0  0  0  0  0  0  0  0  0
    1.6204   -9.9887   17.2935 C   0  0  0  0  0  0  0  0  0  0  0  0
    1.8931   -7.9265   16.2047 C   0  0  0  0  0  0  0  0  0  0  0  0
    2.4396   -9.0801   16.7132 C   0  0  0  0  0  0  0  0  0  0  0  0
   -0.2575   -8.6234   16.8582 C   0  0  0  0  0  0  0  0  0  0  0  0
    4.0614   -7.0367   27.0106 N   0  0  0  0  0  0  0  0  0  0  0  0
   -2.9133  -11.6279   18.7578 C   0  0  0  0  0  0  0  0  0  0  0  0
    4.5688  -10.1291   29.5758 C   0  0  0  0  0  0  0  0  0  0  0  0
    2.1008   -9.0410   29.1852 N   0  0  0  0  0  0  0  0  0  0  0  0
    3.4829  -10.5697   30.2091 N   0  0  0  0  0  0  0  0  0  0  0  0
   -0.3363   -6.1172   27.5628 C   0  0  0  0  0  0  0  0  0  0  0  0
    3.0331   -7.4400   27.6362 C   0  0  0  0  0  0  0  0  0  0  0  0
    5.4553   -8.5933   27.9644 C   0  0  0  0  0  0  0  0  0  0  0  0
   -2.3870  -12.8440   19.2512 C   0  0  0  0  0  0  0  0  0  0  0  0
    0.5331   -7.6964   16.2751 C   0  0  0  0  0  0  0  0  0  0  0  0
   -0.6740  -10.8737   18.0482 C   0  0  0  0  0  0  0  0  0  0  0  0
    5.6751  -10.5870   29.7637 O   0  0  0  0  0  0  0  0  0  0  0  0
    1.7612   -5.6483   26.7172 C   0  0  0  0  0  0  0  0  0  0  0  0
    0.2221   -9.8326   17.4055 C   0  0  0  0  0  0  0  0  0  0  0  0
    4.3850   -9.0730   28.6745 C   0  0  0  0  0  0  0  0  0  0  0  0
  1  7  4  0
  1 22  4  0
  2 17  4  0
  2 20  4  0
  2 28  4  0
  3  6  1  0
  3 19  1  0
  4 19  1  0
  4 26  1  0
  5 17  4  0
  5 18  4  0
  6 20  1  0
  6 26  1  0
  7 24  4  0
  8 15  4  0
  8 24  4  0
  9 14  4  0
  9 21  4  0
 10 12  4  0
 10 27  4  0
 11 12  4  0
 11 23  4  0
 13 23  4  0
 13 27  4  0
 14 20  4  0
 15 22  4  0
 16 18  4  0
 16 25  2  0
 16 28  4  0
 21 28  4  0
 24 27  1  0
M  END
$$$$

 Created by Python create_sdf_string function

 28 31  0  0  0  0  0  0  0  0999 V2000
   -1.0054  -13.0622   19.1198 C   0  0  0  0  0  0  0  0  0  0  0  0
    3.1478   -8.5360   28.5161 C   0  0  0  0  0  0  0  0  0  0  0  0
    0.5798   -7.1906   27.9330 C   0  0  0  0  0  0  0  0  0  0  0  0
    0.3978   -5.1561   26.6955 C   0  0  0  0  0  0  0  0  0  0  0  0
    2.3063  -10.0533   30.0125 C   0  0  0  0  0  0  0  0  0  0  0  0
    1.8591   -6.8254   27.4685 N   0  0  0  0  0  0  0  0  0  0  0  0
   -0.2167  -12.1055   18.5568 C   0  0  0  0  0  0  0  0  0  0  0  0
   -2.0661  -10.6994   18.1916 C   0  0  0  0  0  0  0  0  0  0  0  0
    5.2703   -7.5691   27.1123 C   0  0  0  0  0  0  0  0  0  0  0  0
    1.6204   -9.9887   17.2935 C   0  0  0  0  0  0  0  0  0  0  0  0
    1.8931   -7.9265   16.2047 C   0  0  0  0  0  0  0  0  0  0  0  0
    2.4396   -9.0801   16.7132 C   0  0  0  0  0  0  0  0  0  0  0  0
   -0.2575   -8.6234   16.8582 C   0  0  0  0  0  0  0  0  0  0  0  0
    4.0614   -7.0367   27.0106 N   0  0  0  0  0  0  0  0  0  0  0  0
   -2.9133  -11.6279   18.7578 C   0  0  0  0  0  0  0  0  0  0  0  0
    4.5688  -10.1291   29.5758 C   0  0  0  0  0  0  0  0  0  0  0  0
    2.1008   -9.0410   29.1852 N   0  0  0  0  0  0  0  0  0  0  0  0
    3.4829  -10.5697   30.2091 N   0  0  0  0  0  0  0  0  0  0  0  0
   -0.3363   -6.1172   27.5628 C   0  0  0  0  0  0  0  0  0  0  0  0
    3.0331   -7.4400   27.6362 C   0  0  0  0  0  0  0  0  0  0  0  0
    5.4553   -8.5933   27.9644 C   0  0  0  0  0  0  0  0  0  0  0  0
   -2.3870  -12.8440   19.2512 C   0  0  0  0  0  0  0  0  0  0  0  0
    0.5331   -7.6964   16.2751 C   0  0  0  0  0  0  0  0  0  0  0  0
   -0.6740  -10.8737   18.0482 C   0  0  0  0  0  0  0  0  0  0  0  0
    5.6751  -10.5870   29.7637 O   0  0  0  0  0  0  0  0  0  0  0  0
    1.7612   -5.6483   26.7172 C   0  0  0  0  0  0  0  0  0  0  0  0
    0.2221   -9.8326   17.4055 C   0  0  0  0  0  0  0  0  0  0  0  0
    4.3850   -9.0730   28.6745 C   0  0  0  0  0  0  0  0  0  0  0  0
  1  7  4  0
  1 22  4  0
  2 17  4  0
  2 20  4  0
  2 28  4  0
  3  6  1  0
  3 19  1  0
  4 19  1  0
  4 26  1  0
  5 17  4  0
  5 18  4  0
  6 20  1  0
  6 26  1  0
  7 24  4  0
  8 15  4  0
  8 24  4  0
  9 14  4  0
  9 21  4  0
 10 12  4  0
 10 27  4  0
 11 12  4  0
 11 23  4  0
 13 23  4  0
 13 27  4  0
 14 20  4  0
 15 22  4  0
 16 18  4  0
 16 25  2  0
 16 28  4  0
 21 28  4  0
 24 27  1  0
M  END
$$$$

 Created by Python create_sdf_string function

 28 31  0  0  0  0  0  0  0  0999 V2000
   -1.0054  -13.0622   19.1198 C   0  0  0  0  0  0  0  0  0  0  0  0
    3.1478   -8.5360   28.5161 C   0  0  0  0  0  0  0  0  0  0  0  0
    0.5798   -7.1906   27.9330 C   0  0  0  0  0  0  0  0  0  0  0  0
    0.3978   -5.1561   26.6955 C   0  0  0  0  0  0  0  0  0  0  0  0
    2.3063  -10.0533   30.0125 C   0  0  0  0  0  0  0  0  0  0  0  0
    1.8591   -6.8254   27.4685 N   0  0  0  0  0  0  0  0  0  0  0  0
   -0.2167  -12.1055   18.5568 C   0  0  0  0  0  0  0  0  0  0  0  0
   -2.0661  -10.6994   18.1916 C   0  0  0  0  0  0  0  0  0  0  0  0
    5.2703   -7.5691   27.1123 C   0  0  0  0  0  0  0  0  0  0  0  0
    1.6204   -9.9887   17.2935 C   0  0  0  0  0  0  0  0  0  0  0  0
    1.8931   -7.9265   16.2047 C   0  0  0  0  0  0  0  0  0  0  0  0
    2.4396   -9.0801   16.7132 C   0  0  0  0  0  0  0  0  0  0  0  0
   -0.2575   -8.6234   16.8582 C   0  0  0  0  0  0  0  0  0  0  0  0
    4.0614   -7.0367   27.0106 N   0  0  0  0  0  0  0  0  0  0  0  0
   -2.9133  -11.6279   18.7578 C   0  0  0  0  0  0  0  0  0  0  0  0
    4.5688  -10.1291   29.5758 C   0  0  0  0  0  0  0  0  0  0  0  0
    2.1008   -9.0410   29.1852 N   0  0  0  0  0  0  0  0  0  0  0  0
    3.4829  -10.5697   30.2091 N   0  0  0  0  0  0  0  0  0  0  0  0
   -0.3363   -6.1172   27.5628 C   0  0  0  0  0  0  0  0  0  0  0  0
    3.0331   -7.4400   27.6362 C   0  0  0  0  0  0  0  0  0  0  0  0
    5.4553   -8.5933   27.9644 C   0  0  0  0  0  0  0  0  0  0  0  0
   -2.3870  -12.8440   19.2512 C   0  0  0  0  0  0  0  0  0  0  0  0
    0.5331   -7.6964   16.2751 C   0  0  0  0  0  0  0  0  0  0  0  0
   -0.6740  -10.8737   18.0482 C   0  0  0  0  0  0  0  0  0  0  0  0
    5.6751  -10.5870   29.7637 O   0  0  0  0  0  0  0  0  0  0  0  0
    1.7612   -5.6483   26.7172 C   0  0  0  0  0  0  0  0  0  0  0  0
    0.2221   -9.8326   17.4055 C   0  0  0  0  0  0  0  0  0  0  0  0
    4.3850   -9.0730   28.6745 C   0  0  0  0  0  0  0  0  0  0  0  0
  1  7  4  0
  1 22  4  0
  2 17  4  0
  2 20  4  0
  2 28  4  0
  3  6  1  0
  3 19  1  0
  4 19  1  0
  4 26  1  0
  5 17  4  0
  5 18  4  0
  6 20  1  0
  6 26  1  0
  7 24  4  0
  8 15  4  0
  8 24  4  0
  9 14  4  0
  9 21  4  0
 10 12  4  0
 10 27  4  0
 11 12  4  0
 11 23  4  0
 13 23  4  0
 13 27  4  0
 14 20  4  0
 15 22  4  0
 16 18  4  0
 16 25  2  0
 16 28  4  0
 21 28  4  0
 24 27  1  0
M  END
$$$$

 Created by Python create_sdf_string function

 28 31  0  0  0  0  0  0  0  0999 V2000
   -1.0054  -13.0622   19.1198 C   0  0  0  0  0  0  0  0  0  0  0  0
    3.1478   -8.5360   28.5161 C   0  0  0  0  0  0  0  0  0  0  0  0
    0.5798   -7.1906   27.9330 C   0  0  0  0  0  0  0  0  0  0  0  0
    0.3978   -5.1561   26.6955 C   0  0  0  0  0  0  0  0  0  0  0  0
    2.3063  -10.0533   30.0125 C   0  0  0  0  0  0  0  0  0  0  0  0
    1.8591   -6.8254   27.4685 N   0  0  0  0  0  0  0  0  0  0  0  0
   -0.2167  -12.1055   18.5568 C   0  0  0  0  0  0  0  0  0  0  0  0
   -2.0661  -10.6994   18.1916 C   0  0  0  0  0  0  0  0  0  0  0  0
    5.2703   -7.5691   27.1123 C   0  0  0  0  0  0  0  0  0  0  0  0
    1.6204   -9.9887   17.2935 C   0  0  0  0  0  0  0  0  0  0  0  0
    1.8931   -7.9265   16.2047 C   0  0  0  0  0  0  0  0  0  0  0  0
    2.4396   -9.0801   16.7132 C   0  0  0  0  0  0  0  0  0  0  0  0
   -0.2575   -8.6234   16.8582 C   0  0  0  0  0  0  0  0  0  0  0  0
    4.0614   -7.0367   27.0106 N   0  0  0  0  0  0  0  0  0  0  0  0
   -2.9133  -11.6279   18.7578 C   0  0  0  0  0  0  0  0  0  0  0  0
    4.5688  -10.1291   29.5758 C   0  0  0  0  0  0  0  0  0  0  0  0
    2.1008   -9.0410   29.1852 N   0  0  0  0  0  0  0  0  0  0  0  0
    3.4829  -10.5697   30.2091 N   0  0  0  0  0  0  0  0  0  0  0  0
   -0.3363   -6.1172   27.5628 C   0  0  0  0  0  0  0  0  0  0  0  0
    3.0331   -7.4400   27.6362 C   0  0  0  0  0  0  0  0  0  0  0  0
    5.4553   -8.5933   27.9644 C   0  0  0  0  0  0  0  0  0  0  0  0
   -2.3870  -12.8440   19.2512 C   0  0  0  0  0  0  0  0  0  0  0  0
    0.5331   -7.6964   16.2751 C   0  0  0  0  0  0  0  0  0  0  0  0
   -0.6740  -10.8737   18.0482 C   0  0  0  0  0  0  0  0  0  0  0  0
    5.6751  -10.5870   29.7637 O   0  0  0  0  0  0  0  0  0  0  0  0
    1.7612   -5.6483   26.7172 C   0  0  0  0  0  0  0  0  0  0  0  0
    0.2221   -9.8326   17.4055 C   0  0  0  0  0  0  0  0  0  0  0  0
    4.3850   -9.0730   28.6745 C   0  0  0  0  0  0  0  0  0  0  0  0
  1  7  4  0
  1 22  4  0
  2 17  4  0
  2 20  4  0
  2 28  4  0
  3  6  1  0
  3 19  1  0
  4 19  1  0
  4 26  1  0
  5 17  4  0
  5 18  4  0
  6 20  1  0
  6 26  1  0
  7 24  4  0
  8 15  4  0
  8 24  4  0
  9 14  4  0
  9 21  4  0
 10 12  4  0
 10 27  4  0
 11 12  4  0
 11 23  4  0
 13 23  4  0
 13 27  4  0
 14 20  4  0
 15 22  4  0
 16 18  4  0
 16 25  2  0
 16 28  4  0
 21 28  4  0
 24 27  1  0
M  END
$$$$

 Created by Python create_sdf_string function

 28 31  0  0  0  0  0  0  0  0999 V2000
   -1.0054  -13.0622   19.1198 C   0  0  0  0  0  0  0  0  0  0  0  0
    3.1478   -8.5360   28.5161 C   0  0  0  0  0  0  0  0  0  0  0  0
    0.5798   -7.1906   27.9330 C   0  0  0  0  0  0  0  0  0  0  0  0
    0.3978   -5.1561   26.6955 C   0  0  0  0  0  0  0  0  0  0  0  0
    2.3063  -10.0533   30.0125 C   0  0  0  0  0  0  0  0  0  0  0  0
    1.8591   -6.8254   27.4685 N   0  0  0  0  0  0  0  0  0  0  0  0
   -0.2167  -12.1055   18.5568 C   0  0  0  0  0  0  0  0  0  0  0  0
   -2.0661  -10.6994   18.1916 C   0  0  0  0  0  0  0  0  0  0  0  0
    5.2703   -7.5691   27.1123 C   0  0  0  0  0  0  0  0  0  0  0  0
    1.6204   -9.9887   17.2935 C   0  0  0  0  0  0  0  0  0  0  0  0
    1.8931   -7.9265   16.2047 C   0  0  0  0  0  0  0  0  0  0  0  0
    2.4396   -9.0801   16.7132 C   0  0  0  0  0  0  0  0  0  0  0  0
   -0.2575   -8.6234   16.8582 C   0  0  0  0  0  0  0  0  0  0  0  0
    4.0614   -7.0367   27.0106 N   0  0  0  0  0  0  0  0  0  0  0  0
   -2.9133  -11.6279   18.7578 C   0  0  0  0  0  0  0  0  0  0  0  0
    4.5688  -10.1291   29.5758 C   0  0  0  0  0  0  0  0  0  0  0  0
    2.1008   -9.0410   29.1852 N   0  0  0  0  0  0  0  0  0  0  0  0
    3.4829  -10.5697   30.2091 N   0  0  0  0  0  0  0  0  0  0  0  0
   -0.3363   -6.1172   27.5628 C   0  0  0  0  0  0  0  0  0  0  0  0
    3.0331   -7.4400   27.6362 C   0  0  0  0  0  0  0  0  0  0  0  0
    5.4553   -8.5933   27.9644 C   0  0  0  0  0  0  0  0  0  0  0  0
   -2.3870  -12.8440   19.2512 C   0  0  0  0  0  0  0  0  0  0  0  0
    0.5331   -7.6964   16.2751 C   0  0  0  0  0  0  0  0  0  0  0  0
   -0.6740  -10.8737   18.0482 C   0  0  0  0  0  0  0  0  0  0  0  0
    5.6751  -10.5870   29.7637 O   0  0  0  0  0  0  0  0  0  0  0  0
    1.7612   -5.6483   26.7172 C   0  0  0  0  0  0  0  0  0  0  0  0
    0.2221   -9.8326   17.4055 C   0  0  0  0  0  0  0  0  0  0  0  0
    4.3850   -9.0730   28.6745 C   0  0  0  0  0  0  0  0  0  0  0  0
  1  7  4  0
  1 22  4  0
  2 17  4  0
  2 20  4  0
  2 28  4  0
  3  6  1  0
  3 19  1  0
  4 19  1  0
  4 26  1  0
  5 17  4  0
  5 18  4  0
  6 20  1  0
  6 26  1  0
  7 24  4  0
  8 15  4  0
  8 24  4  0
  9 14  4  0
  9 21  4  0
 10 12  4  0
 10 27  4  0
 11 12  4  0
 11 23  4  0
 13 23  4  0
 13 27  4  0
 14 20  4  0
 15 22  4  0
 16 18  4  0
 16 25  2  0
 16 28  4  0
 21 28  4  0
 24 27  1  0
M  END
$$$$

 Created by Python create_sdf_string function

 28 31  0  0  0  0  0  0  0  0999 V2000
   -1.0054  -13.0622   19.1198 C   0  0  0  0  0  0  0  0  0  0  0  0
    3.1478   -8.5360   28.5161 C   0  0  0  0  0  0  0  0  0  0  0  0
    0.5798   -7.1906   27.9330 C   0  0  0  0  0  0  0  0  0  0  0  0
    0.3978   -5.1561   26.6955 C   0  0  0  0  0  0  0  0  0  0  0  0
    2.3063  -10.0533   30.0125 C   0  0  0  0  0  0  0  0  0  0  0  0
    1.8591   -6.8254   27.4685 N   0  0  0  0  0  0  0  0  0  0  0  0
   -0.2167  -12.1055   18.5568 C   0  0  0  0  0  0  0  0  0  0  0  0
   -2.0661  -10.6994   18.1916 C   0  0  0  0  0  0  0  0  0  0  0  0
    5.2703   -7.5691   27.1123 C   0  0  0  0  0  0  0  0  0  0  0  0
    1.6204   -9.9887   17.2935 C   0  0  0  0  0  0  0  0  0  0  0  0
    1.8931   -7.9265   16.2047 C   0  0  0  0  0  0  0  0  0  0  0  0
    2.4396   -9.0801   16.7132 C   0  0  0  0  0  0  0  0  0  0  0  0
   -0.2575   -8.6234   16.8582 C   0  0  0  0  0  0  0  0  0  0  0  0
    4.0614   -7.0367   27.0106 N   0  0  0  0  0  0  0  0  0  0  0  0
   -2.9133  -11.6279   18.7578 C   0  0  0  0  0  0  0  0  0  0  0  0
    4.5688  -10.1291   29.5758 C   0  0  0  0  0  0  0  0  0  0  0  0
    2.1008   -9.0410   29.1852 N   0  0  0  0  0  0  0  0  0  0  0  0
    3.4829  -10.5697   30.2091 N   0  0  0  0  0  0  0  0  0  0  0  0
   -0.3363   -6.1172   27.5628 C   0  0  0  0  0  0  0  0  0  0  0  0
    3.0331   -7.4400   27.6362 C   0  0  0  0  0  0  0  0  0  0  0  0
    5.4553   -8.5933   27.9644 C   0  0  0  0  0  0  0  0  0  0  0  0
   -2.3870  -12.8440   19.2512 C   0  0  0  0  0  0  0  0  0  0  0  0
    0.5331   -7.6964   16.2751 C   0  0  0  0  0  0  0  0  0  0  0  0
   -0.6740  -10.8737   18.0482 C   0  0  0  0  0  0  0  0  0  0  0  0
    5.6751  -10.5870   29.7637 O   0  0  0  0  0  0  0  0  0  0  0  0
    1.7612   -5.6483   26.7172 C   0  0  0  0  0  0  0  0  0  0  0  0
    0.2221   -9.8326   17.4055 C   0  0  0  0  0  0  0  0  0  0  0  0
    4.3850   -9.0730   28.6745 C   0  0  0  0  0  0  0  0  0  0  0  0
  1  7  4  0
  1 22  4  0
  2 17  4  0
  2 20  4  0
  2 28  4  0
  3  6  1  0
  3 19  1  0
  4 19  1  0
  4 26  1  0
  5 17  4  0
  5 18  4  0
  6 20  1  0
  6 26  1  0
  7 24  4  0
  8 15  4  0
  8 24  4  0
  9 14  4  0
  9 21  4  0
 10 12  4  0
 10 27  4  0
 11 12  4  0
 11 23  4  0
 13 23  4  0
 13 27  4  0
 14 20  4  0
 15 22  4  0
 16 18  4  0
 16 25  2  0
 16 28  4  0
 21 28  4  0
 24 27  1  0
M  END
$$$$

 Created by Python create_sdf_string function

 28 31  0  0  0  0  0  0  0  0999 V2000
   -1.0054  -13.0622   19.1198 C   0  0  0  0  0  0  0  0  0  0  0  0
    3.1478   -8.5360   28.5161 C   0  0  0  0  0  0  0  0  0  0  0  0
    0.5798   -7.1906   27.9330 C   0  0  0  0  0  0  0  0  0  0  0  0
    0.3978   -5.1561   26.6955 C   0  0  0  0  0  0  0  0  0  0  0  0
    2.3063  -10.0533   30.0125 C   0  0  0  0  0  0  0  0  0  0  0  0
    1.8591   -6.8254   27.4685 N   0  0  0  0  0  0  0  0  0  0  0  0
   -0.2167  -12.1055   18.5568 C   0  0  0  0  0  0  0  0  0  0  0  0
   -2.0661  -10.6994   18.1916 C   0  0  0  0  0  0  0  0  0  0  0  0
    5.2703   -7.5691   27.1123 C   0  0  0  0  0  0  0  0  0  0  0  0
    1.6204   -9.9887   17.2935 C   0  0  0  0  0  0  0  0  0  0  0  0
    1.8931   -7.9265   16.2047 C   0  0  0  0  0  0  0  0  0  0  0  0
    2.4396   -9.0801   16.7132 C   0  0  0  0  0  0  0  0  0  0  0  0
   -0.2575   -8.6234   16.8582 C   0  0  0  0  0  0  0  0  0  0  0  0
    4.0614   -7.0367   27.0106 N   0  0  0  0  0  0  0  0  0  0  0  0
   -2.9133  -11.6279   18.7578 C   0  0  0  0  0  0  0  0  0  0  0  0
    4.5688  -10.1291   29.5758 C   0  0  0  0  0  0  0  0  0  0  0  0
    2.1008   -9.0410   29.1852 N   0  0  0  0  0  0  0  0  0  0  0  0
    3.4829  -10.5697   30.2091 N   0  0  0  0  0  0  0  0  0  0  0  0
   -0.3363   -6.1172   27.5628 C   0  0  0  0  0  0  0  0  0  0  0  0
    3.0331   -7.4400   27.6362 C   0  0  0  0  0  0  0  0  0  0  0  0
    5.4553   -8.5933   27.9644 C   0  0  0  0  0  0  0  0  0  0  0  0
   -2.3870  -12.8440   19.2512 C   0  0  0  0  0  0  0  0  0  0  0  0
    0.5331   -7.6964   16.2751 C   0  0  0  0  0  0  0  0  0  0  0  0
   -0.6740  -10.8737   18.0482 C   0  0  0  0  0  0  0  0  0  0  0  0
    5.6751  -10.5870   29.7637 O   0  0  0  0  0  0  0  0  0  0  0  0
    1.7612   -5.6483   26.7172 C   0  0  0  0  0  0  0  0  0  0  0  0
    0.2221   -9.8326   17.4055 C   0  0  0  0  0  0  0  0  0  0  0  0
    4.3850   -9.0730   28.6745 C   0  0  0  0  0  0  0  0  0  0  0  0
  1  7  4  0
  1 22  4  0
  2 17  4  0
  2 20  4  0
  2 28  4  0
  3  6  1  0
  3 19  1  0
  4 19  1  0
  4 26  1  0
  5 17  4  0
  5 18  4  0
  6 20  1  0
  6 26  1  0
  7 24  4  0
  8 15  4  0
  8 24  4  0
  9 14  4  0
  9 21  4  0
 10 12  4  0
 10 27  4  0
 11 12  4  0
 11 23  4  0
 13 23  4  0
 13 27  4  0
 14 20  4  0
 15 22  4  0
 16 18  4  0
 16 25  2  0
 16 28  4  0
 21 28  4  0
 24 27  1  0
M  END
$$$$

 Created by Python create_sdf_string function

 28 31  0  0  0  0  0  0  0  0999 V2000
   -1.0054  -13.0622   19.1198 C   0  0  0  0  0  0  0  0  0  0  0  0
    3.1478   -8.5360   28.5161 C   0  0  0  0  0  0  0  0  0  0  0  0
    0.5798   -7.1906   27.9330 C   0  0  0  0  0  0  0  0  0  0  0  0
    0.3978   -5.1561   26.6955 C   0  0  0  0  0  0  0  0  0  0  0  0
    2.3063  -10.0533   30.0125 C   0  0  0  0  0  0  0  0  0  0  0  0
    1.8591   -6.8254   27.4685 N   0  0  0  0  0  0  0  0  0  0  0  0
   -0.2167  -12.1055   18.5568 C   0  0  0  0  0  0  0  0  0  0  0  0
   -2.0661  -10.6994   18.1916 C   0  0  0  0  0  0  0  0  0  0  0  0
    5.2703   -7.5691   27.1123 C   0  0  0  0  0  0  0  0  0  0  0  0
    1.6204   -9.9887   17.2935 C   0  0  0  0  0  0  0  0  0  0  0  0
    1.8931   -7.9265   16.2047 C   0  0  0  0  0  0  0  0  0  0  0  0
    2.4396   -9.0801   16.7132 C   0  0  0  0  0  0  0  0  0  0  0  0
   -0.2575   -8.6234   16.8582 C   0  0  0  0  0  0  0  0  0  0  0  0
    4.0614   -7.0367   27.0106 N   0  0  0  0  0  0  0  0  0  0  0  0
   -2.9133  -11.6279   18.7578 C   0  0  0  0  0  0  0  0  0  0  0  0
    4.5688  -10.1291   29.5758 C   0  0  0  0  0  0  0  0  0  0  0  0
    2.1008   -9.0410   29.1852 N   0  0  0  0  0  0  0  0  0  0  0  0
    3.4829  -10.5697   30.2091 N   0  0  0  0  0  0  0  0  0  0  0  0
   -0.3363   -6.1172   27.5628 C   0  0  0  0  0  0  0  0  0  0  0  0
    3.0331   -7.4400   27.6362 C   0  0  0  0  0  0  0  0  0  0  0  0
    5.4553   -8.5933   27.9644 C   0  0  0  0  0  0  0  0  0  0  0  0
   -2.3870  -12.8440   19.2512 C   0  0  0  0  0  0  0  0  0  0  0  0
    0.5331   -7.6964   16.2751 C   0  0  0  0  0  0  0  0  0  0  0  0
   -0.6740  -10.8737   18.0482 C   0  0  0  0  0  0  0  0  0  0  0  0
    5.6751  -10.5870   29.7637 O   0  0  0  0  0  0  0  0  0  0  0  0
    1.7612   -5.6483   26.7172 C   0  0  0  0  0  0  0  0  0  0  0  0
    0.2221   -9.8326   17.4055 C   0  0  0  0  0  0  0  0  0  0  0  0
    4.3850   -9.0730   28.6745 C   0  0  0  0  0  0  0  0  0  0  0  0
  1  7  4  0
  1 22  4  0
  2 17  4  0
  2 20  4  0
  2 28  4  0
  3  6  1  0
  3 19  1  0
  4 19  1  0
  4 26  1  0
  5 17  4  0
  5 18  4  0
  6 20  1  0
  6 26  1  0
  7 24  4  0
  8 15  4  0
  8 24  4  0
  9 14  4  0
  9 21  4  0
 10 12  4  0
 10 27  4  0
 11 12  4  0
 11 23  4  0
 13 23  4  0
 13 27  4  0
 14 20  4  0
 15 22  4  0
 16 18  4  0
 16 25  2  0
 16 28  4  0
 21 28  4  0
 24 27  1  0
M  END
$$$$

 Created by Python create_sdf_string function

 28 31  0  0  0  0  0  0  0  0999 V2000
   -1.0054  -13.0622   19.1198 C   0  0  0  0  0  0  0  0  0  0  0  0
    3.1478   -8.5360   28.5161 C   0  0  0  0  0  0  0  0  0  0  0  0
    0.5798   -7.1906   27.9330 C   0  0  0  0  0  0  0  0  0  0  0  0
    0.3978   -5.1561   26.6955 C   0  0  0  0  0  0  0  0  0  0  0  0
    2.3063  -10.0533   30.0125 C   0  0  0  0  0  0  0  0  0  0  0  0
    1.8591   -6.8254   27.4685 N   0  0  0  0  0  0  0  0  0  0  0  0
   -0.2167  -12.1055   18.5568 C   0  0  0  0  0  0  0  0  0  0  0  0
   -2.0661  -10.6994   18.1916 C   0  0  0  0  0  0  0  0  0  0  0  0
    5.2703   -7.5691   27.1123 C   0  0  0  0  0  0  0  0  0  0  0  0
    1.6204   -9.9887   17.2935 C   0  0  0  0  0  0  0  0  0  0  0  0
    1.8931   -7.9265   16.2047 C   0  0  0  0  0  0  0  0  0  0  0  0
    2.4396   -9.0801   16.7132 C   0  0  0  0  0  0  0  0  0  0  0  0
   -0.2575   -8.6234   16.8582 C   0  0  0  0  0  0  0  0  0  0  0  0
    4.0614   -7.0367   27.0106 N   0  0  0  0  0  0  0  0  0  0  0  0
   -2.9133  -11.6279   18.7578 C   0  0  0  0  0  0  0  0  0  0  0  0
    4.5688  -10.1291   29.5758 C   0  0  0  0  0  0  0  0  0  0  0  0
    2.1008   -9.0410   29.1852 N   0  0  0  0  0  0  0  0  0  0  0  0
    3.4829  -10.5697   30.2091 N   0  0  0  0  0  0  0  0  0  0  0  0
   -0.3363   -6.1172   27.5628 C   0  0  0  0  0  0  0  0  0  0  0  0
    3.0331   -7.4400   27.6362 C   0  0  0  0  0  0  0  0  0  0  0  0
    5.4553   -8.5933   27.9644 C   0  0  0  0  0  0  0  0  0  0  0  0
   -2.3870  -12.8440   19.2512 C   0  0  0  0  0  0  0  0  0  0  0  0
    0.5331   -7.6964   16.2751 C   0  0  0  0  0  0  0  0  0  0  0  0
   -0.6740  -10.8737   18.0482 C   0  0  0  0  0  0  0  0  0  0  0  0
    5.6751  -10.5870   29.7637 O   0  0  0  0  0  0  0  0  0  0  0  0
    1.7612   -5.6483   26.7172 C   0  0  0  0  0  0  0  0  0  0  0  0
    0.2221   -9.8326   17.4055 C   0  0  0  0  0  0  0  0  0  0  0  0
    4.3850   -9.0730   28.6745 C   0  0  0  0  0  0  0  0  0  0  0  0
  1  7  4  0
  1 22  4  0
  2 17  4  0
  2 20  4  0
  2 28  4  0
  3  6  1  0
  3 19  1  0
  4 19  1  0
  4 26  1  0
  5 17  4  0
  5 18  4  0
  6 20  1  0
  6 26  1  0
  7 24  4  0
  8 15  4  0
  8 24  4  0
  9 14  4  0
  9 21  4  0
 10 12  4  0
 10 27  4  0
 11 12  4  0
 11 23  4  0
 13 23  4  0
 13 27  4  0
 14 20  4  0
 15 22  4  0
 16 18  4  0
 16 25  2  0
 16 28  4  0
 21 28  4  0
 24 27  1  0
M  END
$$$$

 Created by Python create_sdf_string function

 28 31  0  0  0  0  0  0  0  0999 V2000
   -1.0054  -13.0622   19.1198 C   0  0  0  0  0  0  0  0  0  0  0  0
    3.1478   -8.5360   28.5161 C   0  0  0  0  0  0  0  0  0  0  0  0
    0.5798   -7.1906   27.9330 C   0  0  0  0  0  0  0  0  0  0  0  0
    0.3978   -5.1561   26.6955 C   0  0  0  0  0  0  0  0  0  0  0  0
    2.3063  -10.0533   30.0125 C   0  0  0  0  0  0  0  0  0  0  0  0
    1.8591   -6.8254   27.4685 N   0  0  0  0  0  0  0  0  0  0  0  0
   -0.2167  -12.1055   18.5568 C   0  0  0  0  0  0  0  0  0  0  0  0
   -2.0661  -10.6994   18.1916 C   0  0  0  0  0  0  0  0  0  0  0  0
    5.2703   -7.5691   27.1123 C   0  0  0  0  0  0  0  0  0  0  0  0
    1.6204   -9.9887   17.2935 C   0  0  0  0  0  0  0  0  0  0  0  0
    1.8931   -7.9265   16.2047 C   0  0  0  0  0  0  0  0  0  0  0  0
    2.4396   -9.0801   16.7132 C   0  0  0  0  0  0  0  0  0  0  0  0
   -0.2575   -8.6234   16.8582 C   0  0  0  0  0  0  0  0  0  0  0  0
    4.0614   -7.0367   27.0106 N   0  0  0  0  0  0  0  0  0  0  0  0
   -2.9133  -11.6279   18.7578 C   0  0  0  0  0  0  0  0  0  0  0  0
    4.5688  -10.1291   29.5758 C   0  0  0  0  0  0  0  0  0  0  0  0
    2.1008   -9.0410   29.1852 N   0  0  0  0  0  0  0  0  0  0  0  0
    3.4829  -10.5697   30.2091 N   0  0  0  0  0  0  0  0  0  0  0  0
   -0.3363   -6.1172   27.5628 C   0  0  0  0  0  0  0  0  0  0  0  0
    3.0331   -7.4400   27.6362 C   0  0  0  0  0  0  0  0  0  0  0  0
    5.4553   -8.5933   27.9644 C   0  0  0  0  0  0  0  0  0  0  0  0
   -2.3870  -12.8440   19.2512 C   0  0  0  0  0  0  0  0  0  0  0  0
    0.5331   -7.6964   16.2751 C   0  0  0  0  0  0  0  0  0  0  0  0
   -0.6740  -10.8737   18.0482 C   0  0  0  0  0  0  0  0  0  0  0  0
    5.6751  -10.5870   29.7637 O   0  0  0  0  0  0  0  0  0  0  0  0
    1.7612   -5.6483   26.7172 C   0  0  0  0  0  0  0  0  0  0  0  0
    0.2221   -9.8326   17.4055 C   0  0  0  0  0  0  0  0  0  0  0  0
    4.3850   -9.0730   28.6745 C   0  0  0  0  0  0  0  0  0  0  0  0
  1  7  4  0
  1 22  4  0
  2 17  4  0
  2 20  4  0
  2 28  4  0
  3  6  1  0
  3 19  1  0
  4 19  1  0
  4 26  1  0
  5 17  4  0
  5 18  4  0
  6 20  1  0
  6 26  1  0
  7 24  4  0
  8 15  4  0
  8 24  4  0
  9 14  4  0
  9 21  4  0
 10 12  4  0
 10 27  4  0
 11 12  4  0
 11 23  4  0
 13 23  4  0
 13 27  4  0
 14 20  4  0
 15 22  4  0
 16 18  4  0
 16 25  2  0
 16 28  4  0
 21 28  4  0
 24 27  1  0
M  END
$$$$

 Created by Python create_sdf_string function

 28 31  0  0  0  0  0  0  0  0999 V2000
   -1.0054  -13.0622   19.1198 C   0  0  0  0  0  0  0  0  0  0  0  0
    3.1478   -8.5360   28.5161 C   0  0  0  0  0  0  0  0  0  0  0  0
    0.5798   -7.1906   27.9330 C   0  0  0  0  0  0  0  0  0  0  0  0
    0.3978   -5.1561   26.6955 C   0  0  0  0  0  0  0  0  0  0  0  0
    2.3063  -10.0533   30.0125 C   0  0  0  0  0  0  0  0  0  0  0  0
    1.8591   -6.8254   27.4685 N   0  0  0  0  0  0  0  0  0  0  0  0
   -0.2167  -12.1055   18.5568 C   0  0  0  0  0  0  0  0  0  0  0  0
   -2.0661  -10.6994   18.1916 C   0  0  0  0  0  0  0  0  0  0  0  0
    5.2703   -7.5691   27.1123 C   0  0  0  0  0  0  0  0  0  0  0  0
    1.6204   -9.9887   17.2935 C   0  0  0  0  0  0  0  0  0  0  0  0
    1.8931   -7.9265   16.2047 C   0  0  0  0  0  0  0  0  0  0  0  0
    2.4396   -9.0801   16.7132 C   0  0  0  0  0  0  0  0  0  0  0  0
   -0.2575   -8.6234   16.8582 C   0  0  0  0  0  0  0  0  0  0  0  0
    4.0614   -7.0367   27.0106 N   0  0  0  0  0  0  0  0  0  0  0  0
   -2.9133  -11.6279   18.7578 C   0  0  0  0  0  0  0  0  0  0  0  0
    4.5688  -10.1291   29.5758 C   0  0  0  0  0  0  0  0  0  0  0  0
    2.1008   -9.0410   29.1852 N   0  0  0  0  0  0  0  0  0  0  0  0
    3.4829  -10.5697   30.2091 N   0  0  0  0  0  0  0  0  0  0  0  0
   -0.3363   -6.1172   27.5628 C   0  0  0  0  0  0  0  0  0  0  0  0
    3.0331   -7.4400   27.6362 C   0  0  0  0  0  0  0  0  0  0  0  0
    5.4553   -8.5933   27.9644 C   0  0  0  0  0  0  0  0  0  0  0  0
   -2.3870  -12.8440   19.2512 C   0  0  0  0  0  0  0  0  0  0  0  0
    0.5331   -7.6964   16.2751 C   0  0  0  0  0  0  0  0  0  0  0  0
   -0.6740  -10.8737   18.0482 C   0  0  0  0  0  0  0  0  0  0  0  0
    5.6751  -10.5870   29.7637 O   0  0  0  0  0  0  0  0  0  0  0  0
    1.7612   -5.6483   26.7172 C   0  0  0  0  0  0  0  0  0  0  0  0
    0.2221   -9.8326   17.4055 C   0  0  0  0  0  0  0  0  0  0  0  0
    4.3850   -9.0730   28.6745 C   0  0  0  0  0  0  0  0  0  0  0  0
  1  7  4  0
  1 22  4  0
  2 17  4  0
  2 20  4  0
  2 28  4  0
  3  6  1  0
  3 19  1  0
  4 19  1  0
  4 26  1  0
  5 17  4  0
  5 18  4  0
  6 20  1  0
  6 26  1  0
  7 24  4  0
  8 15  4  0
  8 24  4  0
  9 14  4  0
  9 21  4  0
 10 12  4  0
 10 27  4  0
 11 12  4  0
 11 23  4  0
 13 23  4  0
 13 27  4  0
 14 20  4  0
 15 22  4  0
 16 18  4  0
 16 25  2  0
 16 28  4  0
 21 28  4  0
 24 27  1  0
M  END
$$$$

 Created by Python create_sdf_string function

 28 31  0  0  0  0  0  0  0  0999 V2000
   -1.0054  -13.0622   19.1198 C   0  0  0  0  0  0  0  0  0  0  0  0
    3.1478   -8.5360   28.5161 C   0  0  0  0  0  0  0  0  0  0  0  0
    0.5798   -7.1906   27.9330 C   0  0  0  0  0  0  0  0  0  0  0  0
    0.3978   -5.1561   26.6955 C   0  0  0  0  0  0  0  0  0  0  0  0
    2.3063  -10.0533   30.0125 C   0  0  0  0  0  0  0  0  0  0  0  0
    1.8591   -6.8254   27.4685 N   0  0  0  0  0  0  0  0  0  0  0  0
   -0.2167  -12.1055   18.5568 C   0  0  0  0  0  0  0  0  0  0  0  0
   -2.0661  -10.6994   18.1916 C   0  0  0  0  0  0  0  0  0  0  0  0
    5.2703   -7.5691   27.1123 C   0  0  0  0  0  0  0  0  0  0  0  0
    1.6204   -9.9887   17.2935 C   0  0  0  0  0  0  0  0  0  0  0  0
    1.8931   -7.9265   16.2047 C   0  0  0  0  0  0  0  0  0  0  0  0
    2.4396   -9.0801   16.7132 C   0  0  0  0  0  0  0  0  0  0  0  0
   -0.2575   -8.6234   16.8582 C   0  0  0  0  0  0  0  0  0  0  0  0
    4.0614   -7.0367   27.0106 N   0  0  0  0  0  0  0  0  0  0  0  0
   -2.9133  -11.6279   18.7578 C   0  0  0  0  0  0  0  0  0  0  0  0
    4.5688  -10.1291   29.5758 C   0  0  0  0  0  0  0  0  0  0  0  0
    2.1008   -9.0410   29.1852 N   0  0  0  0  0  0  0  0  0  0  0  0
    3.4829  -10.5697   30.2091 N   0  0  0  0  0  0  0  0  0  0  0  0
   -0.3363   -6.1172   27.5628 C   0  0  0  0  0  0  0  0  0  0  0  0
    3.0331   -7.4400   27.6362 C   0  0  0  0  0  0  0  0  0  0  0  0
    5.4553   -8.5933   27.9644 C   0  0  0  0  0  0  0  0  0  0  0  0
   -2.3870  -12.8440   19.2512 C   0  0  0  0  0  0  0  0  0  0  0  0
    0.5331   -7.6964   16.2751 C   0  0  0  0  0  0  0  0  0  0  0  0
   -0.6740  -10.8737   18.0482 C   0  0  0  0  0  0  0  0  0  0  0  0
    5.6751  -10.5870   29.7637 O   0  0  0  0  0  0  0  0  0  0  0  0
    1.7612   -5.6483   26.7172 C   0  0  0  0  0  0  0  0  0  0  0  0
    0.2221   -9.8326   17.4055 C   0  0  0  0  0  0  0  0  0  0  0  0
    4.3850   -9.0730   28.6745 C   0  0  0  0  0  0  0  0  0  0  0  0
  1  7  4  0
  1 22  4  0
  2 17  4  0
  2 20  4  0
  2 28  4  0
  3  6  1  0
  3 19  1  0
  4 19  1  0
  4 26  1  0
  5 17  4  0
  5 18  4  0
  6 20  1  0
  6 26  1  0
  7 24  4  0
  8 15  4  0
  8 24  4  0
  9 14  4  0
  9 21  4  0
 10 12  4  0
 10 27  4  0
 11 12  4  0
 11 23  4  0
 13 23  4  0
 13 27  4  0
 14 20  4  0
 15 22  4  0
 16 18  4  0
 16 25  2  0
 16 28  4  0
 21 28  4  0
 24 27  1  0
M  END
$$$$

 Created by Python create_sdf_string function

 28 31  0  0  0  0  0  0  0  0999 V2000
   -1.0054  -13.0622   19.1198 C   0  0  0  0  0  0  0  0  0  0  0  0
    3.1478   -8.5360   28.5161 C   0  0  0  0  0  0  0  0  0  0  0  0
    0.5798   -7.1906   27.9330 C   0  0  0  0  0  0  0  0  0  0  0  0
    0.3978   -5.1561   26.6955 C   0  0  0  0  0  0  0  0  0  0  0  0
    2.3063  -10.0533   30.0125 C   0  0  0  0  0  0  0  0  0  0  0  0
    1.8591   -6.8254   27.4685 N   0  0  0  0  0  0  0  0  0  0  0  0
   -0.2167  -12.1055   18.5568 C   0  0  0  0  0  0  0  0  0  0  0  0
   -2.0661  -10.6994   18.1916 C   0  0  0  0  0  0  0  0  0  0  0  0
    5.2703   -7.5691   27.1123 C   0  0  0  0  0  0  0  0  0  0  0  0
    1.6204   -9.9887   17.2935 C   0  0  0  0  0  0  0  0  0  0  0  0
    1.8931   -7.9265   16.2047 C   0  0  0  0  0  0  0  0  0  0  0  0
    2.4396   -9.0801   16.7132 C   0  0  0  0  0  0  0  0  0  0  0  0
   -0.2575   -8.6234   16.8582 C   0  0  0  0  0  0  0  0  0  0  0  0
    4.0614   -7.0367   27.0106 N   0  0  0  0  0  0  0  0  0  0  0  0
   -2.9133  -11.6279   18.7578 C   0  0  0  0  0  0  0  0  0  0  0  0
    4.5688  -10.1291   29.5758 C   0  0  0  0  0  0  0  0  0  0  0  0
    2.1008   -9.0410   29.1852 N   0  0  0  0  0  0  0  0  0  0  0  0
    3.4829  -10.5697   30.2091 N   0  0  0  0  0  0  0  0  0  0  0  0
   -0.3363   -6.1172   27.5628 C   0  0  0  0  0  0  0  0  0  0  0  0
    3.0331   -7.4400   27.6362 C   0  0  0  0  0  0  0  0  0  0  0  0
    5.4553   -8.5933   27.9644 C   0  0  0  0  0  0  0  0  0  0  0  0
   -2.3870  -12.8440   19.2512 C   0  0  0  0  0  0  0  0  0  0  0  0
    0.5331   -7.6964   16.2751 C   0  0  0  0  0  0  0  0  0  0  0  0
   -0.6740  -10.8737   18.0482 C   0  0  0  0  0  0  0  0  0  0  0  0
    5.6751  -10.5870   29.7637 O   0  0  0  0  0  0  0  0  0  0  0  0
    1.7612   -5.6483   26.7172 C   0  0  0  0  0  0  0  0  0  0  0  0
    0.2221   -9.8326   17.4055 C   0  0  0  0  0  0  0  0  0  0  0  0
    4.3850   -9.0730   28.6745 C   0  0  0  0  0  0  0  0  0  0  0  0
  1  7  4  0
  1 22  4  0
  2 17  4  0
  2 20  4  0
  2 28  4  0
  3  6  1  0
  3 19  1  0
  4 19  1  0
  4 26  1  0
  5 17  4  0
  5 18  4  0
  6 20  1  0
  6 26  1  0
  7 24  4  0
  8 15  4  0
  8 24  4  0
  9 14  4  0
  9 21  4  0
 10 12  4  0
 10 27  4  0
 11 12  4  0
 11 23  4  0
 13 23  4  0
 13 27  4  0
 14 20  4  0
 15 22  4  0
 16 18  4  0
 16 25  2  0
 16 28  4  0
 21 28  4  0
 24 27  1  0
M  END
$$$$

 Created by Python create_sdf_string function

 28 31  0  0  0  0  0  0  0  0999 V2000
   -1.0054  -13.0622   19.1198 C   0  0  0  0  0  0  0  0  0  0  0  0
    3.1478   -8.5360   28.5161 C   0  0  0  0  0  0  0  0  0  0  0  0
    0.5798   -7.1906   27.9330 C   0  0  0  0  0  0  0  0  0  0  0  0
    0.3978   -5.1561   26.6955 C   0  0  0  0  0  0  0  0  0  0  0  0
    2.3063  -10.0533   30.0125 C   0  0  0  0  0  0  0  0  0  0  0  0
    1.8591   -6.8254   27.4685 N   0  0  0  0  0  0  0  0  0  0  0  0
   -0.2167  -12.1055   18.5568 C   0  0  0  0  0  0  0  0  0  0  0  0
   -2.0661  -10.6994   18.1916 C   0  0  0  0  0  0  0  0  0  0  0  0
    5.2703   -7.5691   27.1123 C   0  0  0  0  0  0  0  0  0  0  0  0
    1.6204   -9.9887   17.2935 C   0  0  0  0  0  0  0  0  0  0  0  0
    1.8931   -7.9265   16.2047 C   0  0  0  0  0  0  0  0  0  0  0  0
    2.4396   -9.0801   16.7132 C   0  0  0  0  0  0  0  0  0  0  0  0
   -0.2575   -8.6234   16.8582 C   0  0  0  0  0  0  0  0  0  0  0  0
    4.0614   -7.0367   27.0106 N   0  0  0  0  0  0  0  0  0  0  0  0
   -2.9133  -11.6279   18.7578 C   0  0  0  0  0  0  0  0  0  0  0  0
    4.5688  -10.1291   29.5758 C   0  0  0  0  0  0  0  0  0  0  0  0
    2.1008   -9.0410   29.1852 N   0  0  0  0  0  0  0  0  0  0  0  0
    3.4829  -10.5697   30.2091 N   0  0  0  0  0  0  0  0  0  0  0  0
   -0.3363   -6.1172   27.5628 C   0  0  0  0  0  0  0  0  0  0  0  0
    3.0331   -7.4400   27.6362 C   0  0  0  0  0  0  0  0  0  0  0  0
    5.4553   -8.5933   27.9644 C   0  0  0  0  0  0  0  0  0  0  0  0
   -2.3870  -12.8440   19.2512 C   0  0  0  0  0  0  0  0  0  0  0  0
    0.5331   -7.6964   16.2751 C   0  0  0  0  0  0  0  0  0  0  0  0
   -0.6740  -10.8737   18.0482 C   0  0  0  0  0  0  0  0  0  0  0  0
    5.6751  -10.5870   29.7637 O   0  0  0  0  0  0  0  0  0  0  0  0
    1.7612   -5.6483   26.7172 C   0  0  0  0  0  0  0  0  0  0  0  0
    0.2221   -9.8326   17.4055 C   0  0  0  0  0  0  0  0  0  0  0  0
    4.3850   -9.0730   28.6745 C   0  0  0  0  0  0  0  0  0  0  0  0
  1  7  4  0
  1 22  4  0
  2 17  4  0
  2 20  4  0
  2 28  4  0
  3  6  1  0
  3 19  1  0
  4 19  1  0
  4 26  1  0
  5 17  4  0
  5 18  4  0
  6 20  1  0
  6 26  1  0
  7 24  4  0
  8 15  4  0
  8 24  4  0
  9 14  4  0
  9 21  4  0
 10 12  4  0
 10 27  4  0
 11 12  4  0
 11 23  4  0
 13 23  4  0
 13 27  4  0
 14 20  4  0
 15 22  4  0
 16 18  4  0
 16 25  2  0
 16 28  4  0
 21 28  4  0
 24 27  1  0
M  END
$$$$

 Created by Python create_sdf_string function

 28 31  0  0  0  0  0  0  0  0999 V2000
   -1.0054  -13.0622   19.1198 C   0  0  0  0  0  0  0  0  0  0  0  0
    3.1478   -8.5360   28.5161 C   0  0  0  0  0  0  0  0  0  0  0  0
    0.5798   -7.1906   27.9330 C   0  0  0  0  0  0  0  0  0  0  0  0
    0.3978   -5.1561   26.6955 C   0  0  0  0  0  0  0  0  0  0  0  0
    2.3063  -10.0533   30.0125 C   0  0  0  0  0  0  0  0  0  0  0  0
    1.8591   -6.8254   27.4685 N   0  0  0  0  0  0  0  0  0  0  0  0
   -0.2167  -12.1055   18.5568 C   0  0  0  0  0  0  0  0  0  0  0  0
   -2.0661  -10.6994   18.1916 C   0  0  0  0  0  0  0  0  0  0  0  0
    5.2703   -7.5691   27.1123 C   0  0  0  0  0  0  0  0  0  0  0  0
    1.6204   -9.9887   17.2935 C   0  0  0  0  0  0  0  0  0  0  0  0
    1.8931   -7.9265   16.2047 C   0  0  0  0  0  0  0  0  0  0  0  0
    2.4396   -9.0801   16.7132 C   0  0  0  0  0  0  0  0  0  0  0  0
   -0.2575   -8.6234   16.8582 C   0  0  0  0  0  0  0  0  0  0  0  0
    4.0614   -7.0367   27.0106 N   0  0  0  0  0  0  0  0  0  0  0  0
   -2.9133  -11.6279   18.7578 C   0  0  0  0  0  0  0  0  0  0  0  0
    4.5688  -10.1291   29.5758 C   0  0  0  0  0  0  0  0  0  0  0  0
    2.1008   -9.0410   29.1852 N   0  0  0  0  0  0  0  0  0  0  0  0
    3.4829  -10.5697   30.2091 N   0  0  0  0  0  0  0  0  0  0  0  0
   -0.3363   -6.1172   27.5628 C   0  0  0  0  0  0  0  0  0  0  0  0
    3.0331   -7.4400   27.6362 C   0  0  0  0  0  0  0  0  0  0  0  0
    5.4553   -8.5933   27.9644 C   0  0  0  0  0  0  0  0  0  0  0  0
   -2.3870  -12.8440   19.2512 C   0  0  0  0  0  0  0  0  0  0  0  0
    0.5331   -7.6964   16.2751 C   0  0  0  0  0  0  0  0  0  0  0  0
   -0.6740  -10.8737   18.0482 C   0  0  0  0  0  0  0  0  0  0  0  0
    5.6751  -10.5870   29.7637 O   0  0  0  0  0  0  0  0  0  0  0  0
    1.7612   -5.6483   26.7172 C   0  0  0  0  0  0  0  0  0  0  0  0
    0.2221   -9.8326   17.4055 C   0  0  0  0  0  0  0  0  0  0  0  0
    4.3850   -9.0730   28.6745 C   0  0  0  0  0  0  0  0  0  0  0  0
  1  7  4  0
  1 22  4  0
  2 17  4  0
  2 20  4  0
  2 28  4  0
  3  6  1  0
  3 19  1  0
  4 19  1  0
  4 26  1  0
  5 17  4  0
  5 18  4  0
  6 20  1  0
  6 26  1  0
  7 24  4  0
  8 15  4  0
  8 24  4  0
  9 14  4  0
  9 21  4  0
 10 12  4  0
 10 27  4  0
 11 12  4  0
 11 23  4  0
 13 23  4  0
 13 27  4  0
 14 20  4  0
 15 22  4  0
 16 18  4  0
 16 25  2  0
 16 28  4  0
 21 28  4  0
 24 27  1  0
M  END
$$$$

 Created by Python create_sdf_string function

 28 31  0  0  0  0  0  0  0  0999 V2000
   -1.0054  -13.0622   19.1198 C   0  0  0  0  0  0  0  0  0  0  0  0
    3.1478   -8.5360   28.5161 C   0  0  0  0  0  0  0  0  0  0  0  0
    0.5798   -7.1906   27.9330 C   0  0  0  0  0  0  0  0  0  0  0  0
    0.3978   -5.1561   26.6955 C   0  0  0  0  0  0  0  0  0  0  0  0
    2.3063  -10.0533   30.0125 C   0  0  0  0  0  0  0  0  0  0  0  0
    1.8591   -6.8254   27.4685 N   0  0  0  0  0  0  0  0  0  0  0  0
   -0.2167  -12.1055   18.5568 C   0  0  0  0  0  0  0  0  0  0  0  0
   -2.0661  -10.6994   18.1916 C   0  0  0  0  0  0  0  0  0  0  0  0
    5.2703   -7.5691   27.1123 C   0  0  0  0  0  0  0  0  0  0  0  0
    1.6204   -9.9887   17.2935 C   0  0  0  0  0  0  0  0  0  0  0  0
    1.8931   -7.9265   16.2047 C   0  0  0  0  0  0  0  0  0  0  0  0
    2.4396   -9.0801   16.7132 C   0  0  0  0  0  0  0  0  0  0  0  0
   -0.2575   -8.6234   16.8582 C   0  0  0  0  0  0  0  0  0  0  0  0
    4.0614   -7.0367   27.0106 N   0  0  0  0  0  0  0  0  0  0  0  0
   -2.9133  -11.6279   18.7578 C   0  0  0  0  0  0  0  0  0  0  0  0
    4.5688  -10.1291   29.5758 C   0  0  0  0  0  0  0  0  0  0  0  0
    2.1008   -9.0410   29.1852 N   0  0  0  0  0  0  0  0  0  0  0  0
    3.4829  -10.5697   30.2091 N   0  0  0  0  0  0  0  0  0  0  0  0
   -0.3363   -6.1172   27.5628 C   0  0  0  0  0  0  0  0  0  0  0  0
    3.0331   -7.4400   27.6362 C   0  0  0  0  0  0  0  0  0  0  0  0
    5.4553   -8.5933   27.9644 C   0  0  0  0  0  0  0  0  0  0  0  0
   -2.3870  -12.8440   19.2512 C   0  0  0  0  0  0  0  0  0  0  0  0
    0.5331   -7.6964   16.2751 C   0  0  0  0  0  0  0  0  0  0  0  0
   -0.6740  -10.8737   18.0482 C   0  0  0  0  0  0  0  0  0  0  0  0
    5.6751  -10.5870   29.7637 O   0  0  0  0  0  0  0  0  0  0  0  0
    1.7612   -5.6483   26.7172 C   0  0  0  0  0  0  0  0  0  0  0  0
    0.2221   -9.8326   17.4055 C   0  0  0  0  0  0  0  0  0  0  0  0
    4.3850   -9.0730   28.6745 C   0  0  0  0  0  0  0  0  0  0  0  0
  1  7  4  0
  1 22  4  0
  2 17  4  0
  2 20  4  0
  2 28  4  0
  3  6  1  0
  3 19  1  0
  4 19  1  0
  4 26  1  0
  5 17  4  0
  5 18  4  0
  6 20  1  0
  6 26  1  0
  7 24  4  0
  8 15  4  0
  8 24  4  0
  9 14  4  0
  9 21  4  0
 10 12  4  0
 10 27  4  0
 11 12  4  0
 11 23  4  0
 13 23  4  0
 13 27  4  0
 14 20  4  0
 15 22  4  0
 16 18  4  0
 16 25  2  0
 16 28  4  0
 21 28  4  0
 24 27  1  0
M  END
$$$$

 Created by Python create_sdf_string function

 28 31  0  0  0  0  0  0  0  0999 V2000
   -1.0054  -13.0622   19.1198 C   0  0  0  0  0  0  0  0  0  0  0  0
    3.1478   -8.5360   28.5161 C   0  0  0  0  0  0  0  0  0  0  0  0
    0.5798   -7.1906   27.9330 C   0  0  0  0  0  0  0  0  0  0  0  0
    0.3978   -5.1561   26.6955 C   0  0  0  0  0  0  0  0  0  0  0  0
    2.3063  -10.0533   30.0125 C   0  0  0  0  0  0  0  0  0  0  0  0
    1.8591   -6.8254   27.4685 N   0  0  0  0  0  0  0  0  0  0  0  0
   -0.2167  -12.1055   18.5568 C   0  0  0  0  0  0  0  0  0  0  0  0
   -2.0661  -10.6994   18.1916 C   0  0  0  0  0  0  0  0  0  0  0  0
    5.2703   -7.5691   27.1123 C   0  0  0  0  0  0  0  0  0  0  0  0
    1.6204   -9.9887   17.2935 C   0  0  0  0  0  0  0  0  0  0  0  0
    1.8931   -7.9265   16.2047 C   0  0  0  0  0  0  0  0  0  0  0  0
    2.4396   -9.0801   16.7132 C   0  0  0  0  0  0  0  0  0  0  0  0
   -0.2575   -8.6234   16.8582 C   0  0  0  0  0  0  0  0  0  0  0  0
    4.0614   -7.0367   27.0106 N   0  0  0  0  0  0  0  0  0  0  0  0
   -2.9133  -11.6279   18.7578 C   0  0  0  0  0  0  0  0  0  0  0  0
    4.5688  -10.1291   29.5758 C   0  0  0  0  0  0  0  0  0  0  0  0
    2.1008   -9.0410   29.1852 N   0  0  0  0  0  0  0  0  0  0  0  0
    3.4829  -10.5697   30.2091 N   0  0  0  0  0  0  0  0  0  0  0  0
   -0.3363   -6.1172   27.5628 C   0  0  0  0  0  0  0  0  0  0  0  0
    3.0331   -7.4400   27.6362 C   0  0  0  0  0  0  0  0  0  0  0  0
    5.4553   -8.5933   27.9644 C   0  0  0  0  0  0  0  0  0  0  0  0
   -2.3870  -12.8440   19.2512 C   0  0  0  0  0  0  0  0  0  0  0  0
    0.5331   -7.6964   16.2751 C   0  0  0  0  0  0  0  0  0  0  0  0
   -0.6740  -10.8737   18.0482 C   0  0  0  0  0  0  0  0  0  0  0  0
    5.6751  -10.5870   29.7637 O   0  0  0  0  0  0  0  0  0  0  0  0
    1.7612   -5.6483   26.7172 C   0  0  0  0  0  0  0  0  0  0  0  0
    0.2221   -9.8326   17.4055 C   0  0  0  0  0  0  0  0  0  0  0  0
    4.3850   -9.0730   28.6745 C   0  0  0  0  0  0  0  0  0  0  0  0
  1  7  4  0
  1 22  4  0
  2 17  4  0
  2 20  4  0
  2 28  4  0
  3  6  1  0
  3 19  1  0
  4 19  1  0
  4 26  1  0
  5 17  4  0
  5 18  4  0
  6 20  1  0
  6 26  1  0
  7 24  4  0
  8 15  4  0
  8 24  4  0
  9 14  4  0
  9 21  4  0
 10 12  4  0
 10 27  4  0
 11 12  4  0
 11 23  4  0
 13 23  4  0
 13 27  4  0
 14 20  4  0
 15 22  4  0
 16 18  4  0
 16 25  2  0
 16 28  4  0
 21 28  4  0
 24 27  1  0
M  END
$$$$

 Created by Python create_sdf_string function

 28 31  0  0  0  0  0  0  0  0999 V2000
   -1.0054  -13.0622   19.1198 C   0  0  0  0  0  0  0  0  0  0  0  0
    3.1478   -8.5360   28.5161 C   0  0  0  0  0  0  0  0  0  0  0  0
    0.5798   -7.1906   27.9330 C   0  0  0  0  0  0  0  0  0  0  0  0
    0.3978   -5.1561   26.6955 C   0  0  0  0  0  0  0  0  0  0  0  0
    2.3063  -10.0533   30.0125 C   0  0  0  0  0  0  0  0  0  0  0  0
    1.8591   -6.8254   27.4685 N   0  0  0  0  0  0  0  0  0  0  0  0
   -0.2167  -12.1055   18.5568 C   0  0  0  0  0  0  0  0  0  0  0  0
   -2.0661  -10.6994   18.1916 C   0  0  0  0  0  0  0  0  0  0  0  0
    5.2703   -7.5691   27.1123 C   0  0  0  0  0  0  0  0  0  0  0  0
    1.6204   -9.9887   17.2935 C   0  0  0  0  0  0  0  0  0  0  0  0
    1.8931   -7.9265   16.2047 C   0  0  0  0  0  0  0  0  0  0  0  0
    2.4396   -9.0801   16.7132 C   0  0  0  0  0  0  0  0  0  0  0  0
   -0.2575   -8.6234   16.8582 C   0  0  0  0  0  0  0  0  0  0  0  0
    4.0614   -7.0367   27.0106 N   0  0  0  0  0  0  0  0  0  0  0  0
   -2.9133  -11.6279   18.7578 C   0  0  0  0  0  0  0  0  0  0  0  0
    4.5688  -10.1291   29.5758 C   0  0  0  0  0  0  0  0  0  0  0  0
    2.1008   -9.0410   29.1852 N   0  0  0  0  0  0  0  0  0  0  0  0
    3.4829  -10.5697   30.2091 N   0  0  0  0  0  0  0  0  0  0  0  0
   -0.3363   -6.1172   27.5628 C   0  0  0  0  0  0  0  0  0  0  0  0
    3.0331   -7.4400   27.6362 C   0  0  0  0  0  0  0  0  0  0  0  0
    5.4553   -8.5933   27.9644 C   0  0  0  0  0  0  0  0  0  0  0  0
   -2.3870  -12.8440   19.2512 C   0  0  0  0  0  0  0  0  0  0  0  0
    0.5331   -7.6964   16.2751 C   0  0  0  0  0  0  0  0  0  0  0  0
   -0.6740  -10.8737   18.0482 C   0  0  0  0  0  0  0  0  0  0  0  0
    5.6751  -10.5870   29.7637 O   0  0  0  0  0  0  0  0  0  0  0  0
    1.7612   -5.6483   26.7172 C   0  0  0  0  0  0  0  0  0  0  0  0
    0.2221   -9.8326   17.4055 C   0  0  0  0  0  0  0  0  0  0  0  0
    4.3850   -9.0730   28.6745 C   0  0  0  0  0  0  0  0  0  0  0  0
  1  7  4  0
  1 22  4  0
  2 17  4  0
  2 20  4  0
  2 28  4  0
  3  6  1  0
  3 19  1  0
  4 19  1  0
  4 26  1  0
  5 17  4  0
  5 18  4  0
  6 20  1  0
  6 26  1  0
  7 24  4  0
  8 15  4  0
  8 24  4  0
  9 14  4  0
  9 21  4  0
 10 12  4  0
 10 27  4  0
 11 12  4  0
 11 23  4  0
 13 23  4  0
 13 27  4  0
 14 20  4  0
 15 22  4  0
 16 18  4  0
 16 25  2  0
 16 28  4  0
 21 28  4  0
 24 27  1  0
M  END
$$$$

 Created by Python create_sdf_string function

 28 31  0  0  0  0  0  0  0  0999 V2000
   -1.0054  -13.0622   19.1198 C   0  0  0  0  0  0  0  0  0  0  0  0
    3.1478   -8.5360   28.5161 C   0  0  0  0  0  0  0  0  0  0  0  0
    0.5798   -7.1906   27.9330 C   0  0  0  0  0  0  0  0  0  0  0  0
    0.3978   -5.1561   26.6955 C   0  0  0  0  0  0  0  0  0  0  0  0
    2.3063  -10.0533   30.0125 C   0  0  0  0  0  0  0  0  0  0  0  0
    1.8591   -6.8254   27.4685 N   0  0  0  0  0  0  0  0  0  0  0  0
   -0.2167  -12.1055   18.5568 C   0  0  0  0  0  0  0  0  0  0  0  0
   -2.0661  -10.6994   18.1916 C   0  0  0  0  0  0  0  0  0  0  0  0
    5.2703   -7.5691   27.1123 C   0  0  0  0  0  0  0  0  0  0  0  0
    1.6204   -9.9887   17.2935 C   0  0  0  0  0  0  0  0  0  0  0  0
    1.8931   -7.9265   16.2047 C   0  0  0  0  0  0  0  0  0  0  0  0
    2.4396   -9.0801   16.7132 C   0  0  0  0  0  0  0  0  0  0  0  0
   -0.2575   -8.6234   16.8582 C   0  0  0  0  0  0  0  0  0  0  0  0
    4.0614   -7.0367   27.0106 N   0  0  0  0  0  0  0  0  0  0  0  0
   -2.9133  -11.6279   18.7578 C   0  0  0  0  0  0  0  0  0  0  0  0
    4.5688  -10.1291   29.5758 C   0  0  0  0  0  0  0  0  0  0  0  0
    2.1008   -9.0410   29.1852 N   0  0  0  0  0  0  0  0  0  0  0  0
    3.4829  -10.5697   30.2091 N   0  0  0  0  0  0  0  0  0  0  0  0
   -0.3363   -6.1172   27.5628 C   0  0  0  0  0  0  0  0  0  0  0  0
    3.0331   -7.4400   27.6362 C   0  0  0  0  0  0  0  0  0  0  0  0
    5.4553   -8.5933   27.9644 C   0  0  0  0  0  0  0  0  0  0  0  0
   -2.3870  -12.8440   19.2512 C   0  0  0  0  0  0  0  0  0  0  0  0
    0.5331   -7.6964   16.2751 C   0  0  0  0  0  0  0  0  0  0  0  0
   -0.6740  -10.8737   18.0482 C   0  0  0  0  0  0  0  0  0  0  0  0
    5.6751  -10.5870   29.7637 O   0  0  0  0  0  0  0  0  0  0  0  0
    1.7612   -5.6483   26.7172 C   0  0  0  0  0  0  0  0  0  0  0  0
    0.2221   -9.8326   17.4055 C   0  0  0  0  0  0  0  0  0  0  0  0
    4.3850   -9.0730   28.6745 C   0  0  0  0  0  0  0  0  0  0  0  0
  1  7  4  0
  1 22  4  0
  2 17  4  0
  2 20  4  0
  2 28  4  0
  3  6  1  0
  3 19  1  0
  4 19  1  0
  4 26  1  0
  5 17  4  0
  5 18  4  0
  6 20  1  0
  6 26  1  0
  7 24  4  0
  8 15  4  0
  8 24  4  0
  9 14  4  0
  9 21  4  0
 10 12  4  0
 10 27  4  0
 11 12  4  0
 11 23  4  0
 13 23  4  0
 13 27  4  0
 14 20  4  0
 15 22  4  0
 16 18  4  0
 16 25  2  0
 16 28  4  0
 21 28  4  0
 24 27  1  0
M  END
$$$$

 Created by Python create_sdf_string function

 28 31  0  0  0  0  0  0  0  0999 V2000
   -1.0054  -13.0622   19.1198 C   0  0  0  0  0  0  0  0  0  0  0  0
    3.1478   -8.5360   28.5161 C   0  0  0  0  0  0  0  0  0  0  0  0
    0.5798   -7.1906   27.9330 C   0  0  0  0  0  0  0  0  0  0  0  0
    0.3978   -5.1561   26.6955 C   0  0  0  0  0  0  0  0  0  0  0  0
    2.3063  -10.0533   30.0125 C   0  0  0  0  0  0  0  0  0  0  0  0
    1.8591   -6.8254   27.4685 N   0  0  0  0  0  0  0  0  0  0  0  0
   -0.2167  -12.1055   18.5568 C   0  0  0  0  0  0  0  0  0  0  0  0
   -2.0661  -10.6994   18.1916 C   0  0  0  0  0  0  0  0  0  0  0  0
    5.2703   -7.5691   27.1123 C   0  0  0  0  0  0  0  0  0  0  0  0
    1.6204   -9.9887   17.2935 C   0  0  0  0  0  0  0  0  0  0  0  0
    1.8931   -7.9265   16.2047 C   0  0  0  0  0  0  0  0  0  0  0  0
    2.4396   -9.0801   16.7132 C   0  0  0  0  0  0  0  0  0  0  0  0
   -0.2575   -8.6234   16.8582 C   0  0  0  0  0  0  0  0  0  0  0  0
    4.0614   -7.0367   27.0106 N   0  0  0  0  0  0  0  0  0  0  0  0
   -2.9133  -11.6279   18.7578 C   0  0  0  0  0  0  0  0  0  0  0  0
    4.5688  -10.1291   29.5758 C   0  0  0  0  0  0  0  0  0  0  0  0
    2.1008   -9.0410   29.1852 N   0  0  0  0  0  0  0  0  0  0  0  0
    3.4829  -10.5697   30.2091 N   0  0  0  0  0  0  0  0  0  0  0  0
   -0.3363   -6.1172   27.5628 C   0  0  0  0  0  0  0  0  0  0  0  0
    3.0331   -7.4400   27.6362 C   0  0  0  0  0  0  0  0  0  0  0  0
    5.4553   -8.5933   27.9644 C   0  0  0  0  0  0  0  0  0  0  0  0
   -2.3870  -12.8440   19.2512 C   0  0  0  0  0  0  0  0  0  0  0  0
    0.5331   -7.6964   16.2751 C   0  0  0  0  0  0  0  0  0  0  0  0
   -0.6740  -10.8737   18.0482 C   0  0  0  0  0  0  0  0  0  0  0  0
    5.6751  -10.5870   29.7637 O   0  0  0  0  0  0  0  0  0  0  0  0
    1.7612   -5.6483   26.7172 C   0  0  0  0  0  0  0  0  0  0  0  0
    0.2221   -9.8326   17.4055 C   0  0  0  0  0  0  0  0  0  0  0  0
    4.3850   -9.0730   28.6745 C   0  0  0  0  0  0  0  0  0  0  0  0
  1  7  4  0
  1 22  4  0
  2 17  4  0
  2 20  4  0
  2 28  4  0
  3  6  1  0
  3 19  1  0
  4 19  1  0
  4 26  1  0
  5 17  4  0
  5 18  4  0
  6 20  1  0
  6 26  1  0
  7 24  4  0
  8 15  4  0
  8 24  4  0
  9 14  4  0
  9 21  4  0
 10 12  4  0
 10 27  4  0
 11 12  4  0
 11 23  4  0
 13 23  4  0
 13 27  4  0
 14 20  4  0
 15 22  4  0
 16 18  4  0
 16 25  2  0
 16 28  4  0
 21 28  4  0
 24 27  1  0
M  END
$$$$

 Created by Python create_sdf_string function

 28 31  0  0  0  0  0  0  0  0999 V2000
   -1.0054  -13.0622   19.1198 C   0  0  0  0  0  0  0  0  0  0  0  0
    3.1478   -8.5360   28.5161 C   0  0  0  0  0  0  0  0  0  0  0  0
    0.5798   -7.1906   27.9330 C   0  0  0  0  0  0  0  0  0  0  0  0
    0.3978   -5.1561   26.6955 C   0  0  0  0  0  0  0  0  0  0  0  0
    2.3063  -10.0533   30.0125 C   0  0  0  0  0  0  0  0  0  0  0  0
    1.8591   -6.8254   27.4685 N   0  0  0  0  0  0  0  0  0  0  0  0
   -0.2167  -12.1055   18.5568 C   0  0  0  0  0  0  0  0  0  0  0  0
   -2.0661  -10.6994   18.1916 C   0  0  0  0  0  0  0  0  0  0  0  0
    5.2703   -7.5691   27.1123 C   0  0  0  0  0  0  0  0  0  0  0  0
    1.6204   -9.9887   17.2935 C   0  0  0  0  0  0  0  0  0  0  0  0
    1.8931   -7.9265   16.2047 C   0  0  0  0  0  0  0  0  0  0  0  0
    2.4396   -9.0801   16.7132 C   0  0  0  0  0  0  0  0  0  0  0  0
   -0.2575   -8.6234   16.8582 C   0  0  0  0  0  0  0  0  0  0  0  0
    4.0614   -7.0367   27.0106 N   0  0  0  0  0  0  0  0  0  0  0  0
   -2.9133  -11.6279   18.7578 C   0  0  0  0  0  0  0  0  0  0  0  0
    4.5688  -10.1291   29.5758 C   0  0  0  0  0  0  0  0  0  0  0  0
    2.1008   -9.0410   29.1852 N   0  0  0  0  0  0  0  0  0  0  0  0
    3.4829  -10.5697   30.2091 N   0  0  0  0  0  0  0  0  0  0  0  0
   -0.3363   -6.1172   27.5628 C   0  0  0  0  0  0  0  0  0  0  0  0
    3.0331   -7.4400   27.6362 C   0  0  0  0  0  0  0  0  0  0  0  0
    5.4553   -8.5933   27.9644 C   0  0  0  0  0  0  0  0  0  0  0  0
   -2.3870  -12.8440   19.2512 C   0  0  0  0  0  0  0  0  0  0  0  0
    0.5331   -7.6964   16.2751 C   0  0  0  0  0  0  0  0  0  0  0  0
   -0.6740  -10.8737   18.0482 C   0  0  0  0  0  0  0  0  0  0  0  0
    5.6751  -10.5870   29.7637 O   0  0  0  0  0  0  0  0  0  0  0  0
    1.7612   -5.6483   26.7172 C   0  0  0  0  0  0  0  0  0  0  0  0
    0.2221   -9.8326   17.4055 C   0  0  0  0  0  0  0  0  0  0  0  0
    4.3850   -9.0730   28.6745 C   0  0  0  0  0  0  0  0  0  0  0  0
  1  7  4  0
  1 22  4  0
  2 17  4  0
  2 20  4  0
  2 28  4  0
  3  6  1  0
  3 19  1  0
  4 19  1  0
  4 26  1  0
  5 17  4  0
  5 18  4  0
  6 20  1  0
  6 26  1  0
  7 24  4  0
  8 15  4  0
  8 24  4  0
  9 14  4  0
  9 21  4  0
 10 12  4  0
 10 27  4  0
 11 12  4  0
 11 23  4  0
 13 23  4  0
 13 27  4  0
 14 20  4  0
 15 22  4  0
 16 18  4  0
 16 25  2  0
 16 28  4  0
 21 28  4  0
 24 27  1  0
M  END
$$$$

 Created by Python create_sdf_string function

 28 31  0  0  0  0  0  0  0  0999 V2000
   -1.0054  -13.0622   19.1198 C   0  0  0  0  0  0  0  0  0  0  0  0
    3.1478   -8.5360   28.5161 C   0  0  0  0  0  0  0  0  0  0  0  0
    0.5798   -7.1906   27.9330 C   0  0  0  0  0  0  0  0  0  0  0  0
    0.3978   -5.1561   26.6955 C   0  0  0  0  0  0  0  0  0  0  0  0
    2.3063  -10.0533   30.0125 C   0  0  0  0  0  0  0  0  0  0  0  0
    1.8591   -6.8254   27.4685 N   0  0  0  0  0  0  0  0  0  0  0  0
   -0.2167  -12.1055   18.5568 C   0  0  0  0  0  0  0  0  0  0  0  0
   -2.0661  -10.6994   18.1916 C   0  0  0  0  0  0  0  0  0  0  0  0
    5.2703   -7.5691   27.1123 C   0  0  0  0  0  0  0  0  0  0  0  0
    1.6204   -9.9887   17.2935 C   0  0  0  0  0  0  0  0  0  0  0  0
    1.8931   -7.9265   16.2047 C   0  0  0  0  0  0  0  0  0  0  0  0
    2.4396   -9.0801   16.7132 C   0  0  0  0  0  0  0  0  0  0  0  0
   -0.2575   -8.6234   16.8582 C   0  0  0  0  0  0  0  0  0  0  0  0
    4.0614   -7.0367   27.0106 N   0  0  0  0  0  0  0  0  0  0  0  0
   -2.9133  -11.6279   18.7578 C   0  0  0  0  0  0  0  0  0  0  0  0
    4.5688  -10.1291   29.5758 C   0  0  0  0  0  0  0  0  0  0  0  0
    2.1008   -9.0410   29.1852 N   0  0  0  0  0  0  0  0  0  0  0  0
    3.4829  -10.5697   30.2091 N   0  0  0  0  0  0  0  0  0  0  0  0
   -0.3363   -6.1172   27.5628 C   0  0  0  0  0  0  0  0  0  0  0  0
    3.0331   -7.4400   27.6362 C   0  0  0  0  0  0  0  0  0  0  0  0
    5.4553   -8.5933   27.9644 C   0  0  0  0  0  0  0  0  0  0  0  0
   -2.3870  -12.8440   19.2512 C   0  0  0  0  0  0  0  0  0  0  0  0
    0.5331   -7.6964   16.2751 C   0  0  0  0  0  0  0  0  0  0  0  0
   -0.6740  -10.8737   18.0482 C   0  0  0  0  0  0  0  0  0  0  0  0
    5.6751  -10.5870   29.7637 O   0  0  0  0  0  0  0  0  0  0  0  0
    1.7612   -5.6483   26.7172 C   0  0  0  0  0  0  0  0  0  0  0  0
    0.2221   -9.8326   17.4055 C   0  0  0  0  0  0  0  0  0  0  0  0
    4.3850   -9.0730   28.6745 C   0  0  0  0  0  0  0  0  0  0  0  0
  1  7  4  0
  1 22  4  0
  2 17  4  0
  2 20  4  0
  2 28  4  0
  3  6  1  0
  3 19  1  0
  4 19  1  0
  4 26  1  0
  5 17  4  0
  5 18  4  0
  6 20  1  0
  6 26  1  0
  7 24  4  0
  8 15  4  0
  8 24  4  0
  9 14  4  0
  9 21  4  0
 10 12  4  0
 10 27  4  0
 11 12  4  0
 11 23  4  0
 13 23  4  0
 13 27  4  0
 14 20  4  0
 15 22  4  0
 16 18  4  0
 16 25  2  0
 16 28  4  0
 21 28  4  0
 24 27  1  0
M  END
$$$$

 Created by Python create_sdf_string function

 28 31  0  0  0  0  0  0  0  0999 V2000
   -1.0054  -13.0622   19.1198 C   0  0  0  0  0  0  0  0  0  0  0  0
    3.1478   -8.5360   28.5161 C   0  0  0  0  0  0  0  0  0  0  0  0
    0.5798   -7.1906   27.9330 C   0  0  0  0  0  0  0  0  0  0  0  0
    0.3978   -5.1561   26.6955 C   0  0  0  0  0  0  0  0  0  0  0  0
    2.3063  -10.0533   30.0125 C   0  0  0  0  0  0  0  0  0  0  0  0
    1.8591   -6.8254   27.4685 N   0  0  0  0  0  0  0  0  0  0  0  0
   -0.2167  -12.1055   18.5568 C   0  0  0  0  0  0  0  0  0  0  0  0
   -2.0661  -10.6994   18.1916 C   0  0  0  0  0  0  0  0  0  0  0  0
    5.2703   -7.5691   27.1123 C   0  0  0  0  0  0  0  0  0  0  0  0
    1.6204   -9.9887   17.2935 C   0  0  0  0  0  0  0  0  0  0  0  0
    1.8931   -7.9265   16.2047 C   0  0  0  0  0  0  0  0  0  0  0  0
    2.4396   -9.0801   16.7132 C   0  0  0  0  0  0  0  0  0  0  0  0
   -0.2575   -8.6234   16.8582 C   0  0  0  0  0  0  0  0  0  0  0  0
    4.0614   -7.0367   27.0106 N   0  0  0  0  0  0  0  0  0  0  0  0
   -2.9133  -11.6279   18.7578 C   0  0  0  0  0  0  0  0  0  0  0  0
    4.5688  -10.1291   29.5758 C   0  0  0  0  0  0  0  0  0  0  0  0
    2.1008   -9.0410   29.1852 N   0  0  0  0  0  0  0  0  0  0  0  0
    3.4829  -10.5697   30.2091 N   0  0  0  0  0  0  0  0  0  0  0  0
   -0.3363   -6.1172   27.5628 C   0  0  0  0  0  0  0  0  0  0  0  0
    3.0331   -7.4400   27.6362 C   0  0  0  0  0  0  0  0  0  0  0  0
    5.4553   -8.5933   27.9644 C   0  0  0  0  0  0  0  0  0  0  0  0
   -2.3870  -12.8440   19.2512 C   0  0  0  0  0  0  0  0  0  0  0  0
    0.5331   -7.6964   16.2751 C   0  0  0  0  0  0  0  0  0  0  0  0
   -0.6740  -10.8737   18.0482 C   0  0  0  0  0  0  0  0  0  0  0  0
    5.6751  -10.5870   29.7637 O   0  0  0  0  0  0  0  0  0  0  0  0
    1.7612   -5.6483   26.7172 C   0  0  0  0  0  0  0  0  0  0  0  0
    0.2221   -9.8326   17.4055 C   0  0  0  0  0  0  0  0  0  0  0  0
    4.3850   -9.0730   28.6745 C   0  0  0  0  0  0  0  0  0  0  0  0
  1  7  4  0
  1 22  4  0
  2 17  4  0
  2 20  4  0
  2 28  4  0
  3  6  1  0
  3 19  1  0
  4 19  1  0
  4 26  1  0
  5 17  4  0
  5 18  4  0
  6 20  1  0
  6 26  1  0
  7 24  4  0
  8 15  4  0
  8 24  4  0
  9 14  4  0
  9 21  4  0
 10 12  4  0
 10 27  4  0
 11 12  4  0
 11 23  4  0
 13 23  4  0
 13 27  4  0
 14 20  4  0
 15 22  4  0
 16 18  4  0
 16 25  2  0
 16 28  4  0
 21 28  4  0
 24 27  1  0
M  END
$$$$

 Created by Python create_sdf_string function

 28 31  0  0  0  0  0  0  0  0999 V2000
   -1.0054  -13.0622   19.1198 C   0  0  0  0  0  0  0  0  0  0  0  0
    3.1478   -8.5360   28.5161 C   0  0  0  0  0  0  0  0  0  0  0  0
    0.5798   -7.1906   27.9330 C   0  0  0  0  0  0  0  0  0  0  0  0
    0.3978   -5.1561   26.6955 C   0  0  0  0  0  0  0  0  0  0  0  0
    2.3063  -10.0533   30.0125 C   0  0  0  0  0  0  0  0  0  0  0  0
    1.8591   -6.8254   27.4685 N   0  0  0  0  0  0  0  0  0  0  0  0
   -0.2167  -12.1055   18.5568 C   0  0  0  0  0  0  0  0  0  0  0  0
   -2.0661  -10.6994   18.1916 C   0  0  0  0  0  0  0  0  0  0  0  0
    5.2703   -7.5691   27.1123 C   0  0  0  0  0  0  0  0  0  0  0  0
    1.6204   -9.9887   17.2935 C   0  0  0  0  0  0  0  0  0  0  0  0
    1.8931   -7.9265   16.2047 C   0  0  0  0  0  0  0  0  0  0  0  0
    2.4396   -9.0801   16.7132 C   0  0  0  0  0  0  0  0  0  0  0  0
   -0.2575   -8.6234   16.8582 C   0  0  0  0  0  0  0  0  0  0  0  0
    4.0614   -7.0367   27.0106 N   0  0  0  0  0  0  0  0  0  0  0  0
   -2.9133  -11.6279   18.7578 C   0  0  0  0  0  0  0  0  0  0  0  0
    4.5688  -10.1291   29.5758 C   0  0  0  0  0  0  0  0  0  0  0  0
    2.1008   -9.0410   29.1852 N   0  0  0  0  0  0  0  0  0  0  0  0
    3.4829  -10.5697   30.2091 N   0  0  0  0  0  0  0  0  0  0  0  0
   -0.3363   -6.1172   27.5628 C   0  0  0  0  0  0  0  0  0  0  0  0
    3.0331   -7.4400   27.6362 C   0  0  0  0  0  0  0  0  0  0  0  0
    5.4553   -8.5933   27.9644 C   0  0  0  0  0  0  0  0  0  0  0  0
   -2.3870  -12.8440   19.2512 C   0  0  0  0  0  0  0  0  0  0  0  0
    0.5331   -7.6964   16.2751 C   0  0  0  0  0  0  0  0  0  0  0  0
   -0.6740  -10.8737   18.0482 C   0  0  0  0  0  0  0  0  0  0  0  0
    5.6751  -10.5870   29.7637 O   0  0  0  0  0  0  0  0  0  0  0  0
    1.7612   -5.6483   26.7172 C   0  0  0  0  0  0  0  0  0  0  0  0
    0.2221   -9.8326   17.4055 C   0  0  0  0  0  0  0  0  0  0  0  0
    4.3850   -9.0730   28.6745 C   0  0  0  0  0  0  0  0  0  0  0  0
  1  7  4  0
  1 22  4  0
  2 17  4  0
  2 20  4  0
  2 28  4  0
  3  6  1  0
  3 19  1  0
  4 19  1  0
  4 26  1  0
  5 17  4  0
  5 18  4  0
  6 20  1  0
  6 26  1  0
  7 24  4  0
  8 15  4  0
  8 24  4  0
  9 14  4  0
  9 21  4  0
 10 12  4  0
 10 27  4  0
 11 12  4  0
 11 23  4  0
 13 23  4  0
 13 27  4  0
 14 20  4  0
 15 22  4  0
 16 18  4  0
 16 25  2  0
 16 28  4  0
 21 28  4  0
 24 27  1  0
M  END
$$$$

 Created by Python create_sdf_string function

 28 31  0  0  0  0  0  0  0  0999 V2000
   -1.0054  -13.0622   19.1198 C   0  0  0  0  0  0  0  0  0  0  0  0
    3.1478   -8.5360   28.5161 C   0  0  0  0  0  0  0  0  0  0  0  0
    0.5798   -7.1906   27.9330 C   0  0  0  0  0  0  0  0  0  0  0  0
    0.3978   -5.1561   26.6955 C   0  0  0  0  0  0  0  0  0  0  0  0
    2.3063  -10.0533   30.0125 C   0  0  0  0  0  0  0  0  0  0  0  0
    1.8591   -6.8254   27.4685 N   0  0  0  0  0  0  0  0  0  0  0  0
   -0.2167  -12.1055   18.5568 C   0  0  0  0  0  0  0  0  0  0  0  0
   -2.0661  -10.6994   18.1916 C   0  0  0  0  0  0  0  0  0  0  0  0
    5.2703   -7.5691   27.1123 C   0  0  0  0  0  0  0  0  0  0  0  0
    1.6204   -9.9887   17.2935 C   0  0  0  0  0  0  0  0  0  0  0  0
    1.8931   -7.9265   16.2047 C   0  0  0  0  0  0  0  0  0  0  0  0
    2.4396   -9.0801   16.7132 C   0  0  0  0  0  0  0  0  0  0  0  0
   -0.2575   -8.6234   16.8582 C   0  0  0  0  0  0  0  0  0  0  0  0
    4.0614   -7.0367   27.0106 N   0  0  0  0  0  0  0  0  0  0  0  0
   -2.9133  -11.6279   18.7578 C   0  0  0  0  0  0  0  0  0  0  0  0
    4.5688  -10.1291   29.5758 C   0  0  0  0  0  0  0  0  0  0  0  0
    2.1008   -9.0410   29.1852 N   0  0  0  0  0  0  0  0  0  0  0  0
    3.4829  -10.5697   30.2091 N   0  0  0  0  0  0  0  0  0  0  0  0
   -0.3363   -6.1172   27.5628 C   0  0  0  0  0  0  0  0  0  0  0  0
    3.0331   -7.4400   27.6362 C   0  0  0  0  0  0  0  0  0  0  0  0
    5.4553   -8.5933   27.9644 C   0  0  0  0  0  0  0  0  0  0  0  0
   -2.3870  -12.8440   19.2512 C   0  0  0  0  0  0  0  0  0  0  0  0
    0.5331   -7.6964   16.2751 C   0  0  0  0  0  0  0  0  0  0  0  0
   -0.6740  -10.8737   18.0482 C   0  0  0  0  0  0  0  0  0  0  0  0
    5.6751  -10.5870   29.7637 O   0  0  0  0  0  0  0  0  0  0  0  0
    1.7612   -5.6483   26.7172 C   0  0  0  0  0  0  0  0  0  0  0  0
    0.2221   -9.8326   17.4055 C   0  0  0  0  0  0  0  0  0  0  0  0
    4.3850   -9.0730   28.6745 C   0  0  0  0  0  0  0  0  0  0  0  0
  1  7  4  0
  1 22  4  0
  2 17  4  0
  2 20  4  0
  2 28  4  0
  3  6  1  0
  3 19  1  0
  4 19  1  0
  4 26  1  0
  5 17  4  0
  5 18  4  0
  6 20  1  0
  6 26  1  0
  7 24  4  0
  8 15  4  0
  8 24  4  0
  9 14  4  0
  9 21  4  0
 10 12  4  0
 10 27  4  0
 11 12  4  0
 11 23  4  0
 13 23  4  0
 13 27  4  0
 14 20  4  0
 15 22  4  0
 16 18  4  0
 16 25  2  0
 16 28  4  0
 21 28  4  0
 24 27  1  0
M  END
$$$$

 Created by Python create_sdf_string function

 28 31  0  0  0  0  0  0  0  0999 V2000
   -1.0054  -13.0622   19.1198 C   0  0  0  0  0  0  0  0  0  0  0  0
    3.1478   -8.5360   28.5161 C   0  0  0  0  0  0  0  0  0  0  0  0
    0.5798   -7.1906   27.9330 C   0  0  0  0  0  0  0  0  0  0  0  0
    0.3978   -5.1561   26.6955 C   0  0  0  0  0  0  0  0  0  0  0  0
    2.3063  -10.0533   30.0125 C   0  0  0  0  0  0  0  0  0  0  0  0
    1.8591   -6.8254   27.4685 N   0  0  0  0  0  0  0  0  0  0  0  0
   -0.2167  -12.1055   18.5568 C   0  0  0  0  0  0  0  0  0  0  0  0
   -2.0661  -10.6994   18.1916 C   0  0  0  0  0  0  0  0  0  0  0  0
    5.2703   -7.5691   27.1123 C   0  0  0  0  0  0  0  0  0  0  0  0
    1.6204   -9.9887   17.2935 C   0  0  0  0  0  0  0  0  0  0  0  0
    1.8931   -7.9265   16.2047 C   0  0  0  0  0  0  0  0  0  0  0  0
    2.4396   -9.0801   16.7132 C   0  0  0  0  0  0  0  0  0  0  0  0
   -0.2575   -8.6234   16.8582 C   0  0  0  0  0  0  0  0  0  0  0  0
    4.0614   -7.0367   27.0106 N   0  0  0  0  0  0  0  0  0  0  0  0
   -2.9133  -11.6279   18.7578 C   0  0  0  0  0  0  0  0  0  0  0  0
    4.5688  -10.1291   29.5758 C   0  0  0  0  0  0  0  0  0  0  0  0
    2.1008   -9.0410   29.1852 N   0  0  0  0  0  0  0  0  0  0  0  0
    3.4829  -10.5697   30.2091 N   0  0  0  0  0  0  0  0  0  0  0  0
   -0.3363   -6.1172   27.5628 C   0  0  0  0  0  0  0  0  0  0  0  0
    3.0331   -7.4400   27.6362 C   0  0  0  0  0  0  0  0  0  0  0  0
    5.4553   -8.5933   27.9644 C   0  0  0  0  0  0  0  0  0  0  0  0
   -2.3870  -12.8440   19.2512 C   0  0  0  0  0  0  0  0  0  0  0  0
    0.5331   -7.6964   16.2751 C   0  0  0  0  0  0  0  0  0  0  0  0
   -0.6740  -10.8737   18.0482 C   0  0  0  0  0  0  0  0  0  0  0  0
    5.6751  -10.5870   29.7637 O   0  0  0  0  0  0  0  0  0  0  0  0
    1.7612   -5.6483   26.7172 C   0  0  0  0  0  0  0  0  0  0  0  0
    0.2221   -9.8326   17.4055 C   0  0  0  0  0  0  0  0  0  0  0  0
    4.3850   -9.0730   28.6745 C   0  0  0  0  0  0  0  0  0  0  0  0
  1  7  4  0
  1 22  4  0
  2 17  4  0
  2 20  4  0
  2 28  4  0
  3  6  1  0
  3 19  1  0
  4 19  1  0
  4 26  1  0
  5 17  4  0
  5 18  4  0
  6 20  1  0
  6 26  1  0
  7 24  4  0
  8 15  4  0
  8 24  4  0
  9 14  4  0
  9 21  4  0
 10 12  4  0
 10 27  4  0
 11 12  4  0
 11 23  4  0
 13 23  4  0
 13 27  4  0
 14 20  4  0
 15 22  4  0
 16 18  4  0
 16 25  2  0
 16 28  4  0
 21 28  4  0
 24 27  1  0
M  END
$$$$

 Created by Python create_sdf_string function

 28 31  0  0  0  0  0  0  0  0999 V2000
   -1.0054  -13.0622   19.1198 C   0  0  0  0  0  0  0  0  0  0  0  0
    3.1478   -8.5360   28.5161 C   0  0  0  0  0  0  0  0  0  0  0  0
    0.5798   -7.1906   27.9330 C   0  0  0  0  0  0  0  0  0  0  0  0
    0.3978   -5.1561   26.6955 C   0  0  0  0  0  0  0  0  0  0  0  0
    2.3063  -10.0533   30.0125 C   0  0  0  0  0  0  0  0  0  0  0  0
    1.8591   -6.8254   27.4685 N   0  0  0  0  0  0  0  0  0  0  0  0
   -0.2167  -12.1055   18.5568 C   0  0  0  0  0  0  0  0  0  0  0  0
   -2.0661  -10.6994   18.1916 C   0  0  0  0  0  0  0  0  0  0  0  0
    5.2703   -7.5691   27.1123 C   0  0  0  0  0  0  0  0  0  0  0  0
    1.6204   -9.9887   17.2935 C   0  0  0  0  0  0  0  0  0  0  0  0
    1.8931   -7.9265   16.2047 C   0  0  0  0  0  0  0  0  0  0  0  0
    2.4396   -9.0801   16.7132 C   0  0  0  0  0  0  0  0  0  0  0  0
   -0.2575   -8.6234   16.8582 C   0  0  0  0  0  0  0  0  0  0  0  0
    4.0614   -7.0367   27.0106 N   0  0  0  0  0  0  0  0  0  0  0  0
   -2.9133  -11.6279   18.7578 C   0  0  0  0  0  0  0  0  0  0  0  0
    4.5688  -10.1291   29.5758 C   0  0  0  0  0  0  0  0  0  0  0  0
    2.1008   -9.0410   29.1852 N   0  0  0  0  0  0  0  0  0  0  0  0
    3.4829  -10.5697   30.2091 N   0  0  0  0  0  0  0  0  0  0  0  0
   -0.3363   -6.1172   27.5628 C   0  0  0  0  0  0  0  0  0  0  0  0
    3.0331   -7.4400   27.6362 C   0  0  0  0  0  0  0  0  0  0  0  0
    5.4553   -8.5933   27.9644 C   0  0  0  0  0  0  0  0  0  0  0  0
   -2.3870  -12.8440   19.2512 C   0  0  0  0  0  0  0  0  0  0  0  0
    0.5331   -7.6964   16.2751 C   0  0  0  0  0  0  0  0  0  0  0  0
   -0.6740  -10.8737   18.0482 C   0  0  0  0  0  0  0  0  0  0  0  0
    5.6751  -10.5870   29.7637 O   0  0  0  0  0  0  0  0  0  0  0  0
    1.7612   -5.6483   26.7172 C   0  0  0  0  0  0  0  0  0  0  0  0
    0.2221   -9.8326   17.4055 C   0  0  0  0  0  0  0  0  0  0  0  0
    4.3850   -9.0730   28.6745 C   0  0  0  0  0  0  0  0  0  0  0  0
  1  7  4  0
  1 22  4  0
  2 17  4  0
  2 20  4  0
  2 28  4  0
  3  6  1  0
  3 19  1  0
  4 19  1  0
  4 26  1  0
  5 17  4  0
  5 18  4  0
  6 20  1  0
  6 26  1  0
  7 24  4  0
  8 15  4  0
  8 24  4  0
  9 14  4  0
  9 21  4  0
 10 12  4  0
 10 27  4  0
 11 12  4  0
 11 23  4  0
 13 23  4  0
 13 27  4  0
 14 20  4  0
 15 22  4  0
 16 18  4  0
 16 25  2  0
 16 28  4  0
 21 28  4  0
 24 27  1  0
M  END
$$$$

 Created by Python create_sdf_string function

 28 31  0  0  0  0  0  0  0  0999 V2000
   -1.0054  -13.0622   19.1198 C   0  0  0  0  0  0  0  0  0  0  0  0
    3.1478   -8.5360   28.5161 C   0  0  0  0  0  0  0  0  0  0  0  0
    0.5798   -7.1906   27.9330 C   0  0  0  0  0  0  0  0  0  0  0  0
    0.3978   -5.1561   26.6955 C   0  0  0  0  0  0  0  0  0  0  0  0
    2.3063  -10.0533   30.0125 C   0  0  0  0  0  0  0  0  0  0  0  0
    1.8591   -6.8254   27.4685 N   0  0  0  0  0  0  0  0  0  0  0  0
   -0.2167  -12.1055   18.5568 C   0  0  0  0  0  0  0  0  0  0  0  0
   -2.0661  -10.6994   18.1916 C   0  0  0  0  0  0  0  0  0  0  0  0
    5.2703   -7.5691   27.1123 C   0  0  0  0  0  0  0  0  0  0  0  0
    1.6204   -9.9887   17.2935 C   0  0  0  0  0  0  0  0  0  0  0  0
    1.8931   -7.9265   16.2047 C   0  0  0  0  0  0  0  0  0  0  0  0
    2.4396   -9.0801   16.7132 C   0  0  0  0  0  0  0  0  0  0  0  0
   -0.2575   -8.6234   16.8582 C   0  0  0  0  0  0  0  0  0  0  0  0
    4.0614   -7.0367   27.0106 N   0  0  0  0  0  0  0  0  0  0  0  0
   -2.9133  -11.6279   18.7578 C   0  0  0  0  0  0  0  0  0  0  0  0
    4.5688  -10.1291   29.5758 C   0  0  0  0  0  0  0  0  0  0  0  0
    2.1008   -9.0410   29.1852 N   0  0  0  0  0  0  0  0  0  0  0  0
    3.4829  -10.5697   30.2091 N   0  0  0  0  0  0  0  0  0  0  0  0
   -0.3363   -6.1172   27.5628 C   0  0  0  0  0  0  0  0  0  0  0  0
    3.0331   -7.4400   27.6362 C   0  0  0  0  0  0  0  0  0  0  0  0
    5.4553   -8.5933   27.9644 C   0  0  0  0  0  0  0  0  0  0  0  0
   -2.3870  -12.8440   19.2512 C   0  0  0  0  0  0  0  0  0  0  0  0
    0.5331   -7.6964   16.2751 C   0  0  0  0  0  0  0  0  0  0  0  0
   -0.6740  -10.8737   18.0482 C   0  0  0  0  0  0  0  0  0  0  0  0
    5.6751  -10.5870   29.7637 O   0  0  0  0  0  0  0  0  0  0  0  0
    1.7612   -5.6483   26.7172 C   0  0  0  0  0  0  0  0  0  0  0  0
    0.2221   -9.8326   17.4055 C   0  0  0  0  0  0  0  0  0  0  0  0
    4.3850   -9.0730   28.6745 C   0  0  0  0  0  0  0  0  0  0  0  0
  1  7  4  0
  1 22  4  0
  2 17  4  0
  2 20  4  0
  2 28  4  0
  3  6  1  0
  3 19  1  0
  4 19  1  0
  4 26  1  0
  5 17  4  0
  5 18  4  0
  6 20  1  0
  6 26  1  0
  7 24  4  0
  8 15  4  0
  8 24  4  0
  9 14  4  0
  9 21  4  0
 10 12  4  0
 10 27  4  0
 11 12  4  0
 11 23  4  0
 13 23  4  0
 13 27  4  0
 14 20  4  0
 15 22  4  0
 16 18  4  0
 16 25  2  0
 16 28  4  0
 21 28  4  0
 24 27  1  0
M  END
$$$$

 Created by Python create_sdf_string function

 28 31  0  0  0  0  0  0  0  0999 V2000
   -1.0054  -13.0622   19.1198 C   0  0  0  0  0  0  0  0  0  0  0  0
    3.1478   -8.5360   28.5161 C   0  0  0  0  0  0  0  0  0  0  0  0
    0.5798   -7.1906   27.9330 C   0  0  0  0  0  0  0  0  0  0  0  0
    0.3978   -5.1561   26.6955 C   0  0  0  0  0  0  0  0  0  0  0  0
    2.3063  -10.0533   30.0125 C   0  0  0  0  0  0  0  0  0  0  0  0
    1.8591   -6.8254   27.4685 N   0  0  0  0  0  0  0  0  0  0  0  0
   -0.2167  -12.1055   18.5568 C   0  0  0  0  0  0  0  0  0  0  0  0
   -2.0661  -10.6994   18.1916 C   0  0  0  0  0  0  0  0  0  0  0  0
    5.2703   -7.5691   27.1123 C   0  0  0  0  0  0  0  0  0  0  0  0
    1.6204   -9.9887   17.2935 C   0  0  0  0  0  0  0  0  0  0  0  0
    1.8931   -7.9265   16.2047 C   0  0  0  0  0  0  0  0  0  0  0  0
    2.4396   -9.0801   16.7132 C   0  0  0  0  0  0  0  0  0  0  0  0
   -0.2575   -8.6234   16.8582 C   0  0  0  0  0  0  0  0  0  0  0  0
    4.0614   -7.0367   27.0106 N   0  0  0  0  0  0  0  0  0  0  0  0
   -2.9133  -11.6279   18.7578 C   0  0  0  0  0  0  0  0  0  0  0  0
    4.5688  -10.1291   29.5758 C   0  0  0  0  0  0  0  0  0  0  0  0
    2.1008   -9.0410   29.1852 N   0  0  0  0  0  0  0  0  0  0  0  0
    3.4829  -10.5697   30.2091 N   0  0  0  0  0  0  0  0  0  0  0  0
   -0.3363   -6.1172   27.5628 C   0  0  0  0  0  0  0  0  0  0  0  0
    3.0331   -7.4400   27.6362 C   0  0  0  0  0  0  0  0  0  0  0  0
    5.4553   -8.5933   27.9644 C   0  0  0  0  0  0  0  0  0  0  0  0
   -2.3870  -12.8440   19.2512 C   0  0  0  0  0  0  0  0  0  0  0  0
    0.5331   -7.6964   16.2751 C   0  0  0  0  0  0  0  0  0  0  0  0
   -0.6740  -10.8737   18.0482 C   0  0  0  0  0  0  0  0  0  0  0  0
    5.6751  -10.5870   29.7637 O   0  0  0  0  0  0  0  0  0  0  0  0
    1.7612   -5.6483   26.7172 C   0  0  0  0  0  0  0  0  0  0  0  0
    0.2221   -9.8326   17.4055 C   0  0  0  0  0  0  0  0  0  0  0  0
    4.3850   -9.0730   28.6745 C   0  0  0  0  0  0  0  0  0  0  0  0
  1  7  4  0
  1 22  4  0
  2 17  4  0
  2 20  4  0
  2 28  4  0
  3  6  1  0
  3 19  1  0
  4 19  1  0
  4 26  1  0
  5 17  4  0
  5 18  4  0
  6 20  1  0
  6 26  1  0
  7 24  4  0
  8 15  4  0
  8 24  4  0
  9 14  4  0
  9 21  4  0
 10 12  4  0
 10 27  4  0
 11 12  4  0
 11 23  4  0
 13 23  4  0
 13 27  4  0
 14 20  4  0
 15 22  4  0
 16 18  4  0
 16 25  2  0
 16 28  4  0
 21 28  4  0
 24 27  1  0
M  END
$$$$

 Created by Python create_sdf_string function

 28 31  0  0  0  0  0  0  0  0999 V2000
   -1.0054  -13.0622   19.1198 C   0  0  0  0  0  0  0  0  0  0  0  0
    3.1478   -8.5360   28.5161 C   0  0  0  0  0  0  0  0  0  0  0  0
    0.5798   -7.1906   27.9330 C   0  0  0  0  0  0  0  0  0  0  0  0
    0.3978   -5.1561   26.6955 C   0  0  0  0  0  0  0  0  0  0  0  0
    2.3063  -10.0533   30.0125 C   0  0  0  0  0  0  0  0  0  0  0  0
    1.8591   -6.8254   27.4685 N   0  0  0  0  0  0  0  0  0  0  0  0
   -0.2167  -12.1055   18.5568 C   0  0  0  0  0  0  0  0  0  0  0  0
   -2.0661  -10.6994   18.1916 C   0  0  0  0  0  0  0  0  0  0  0  0
    5.2703   -7.5691   27.1123 C   0  0  0  0  0  0  0  0  0  0  0  0
    1.6204   -9.9887   17.2935 C   0  0  0  0  0  0  0  0  0  0  0  0
    1.8931   -7.9265   16.2047 C   0  0  0  0  0  0  0  0  0  0  0  0
    2.4396   -9.0801   16.7132 C   0  0  0  0  0  0  0  0  0  0  0  0
   -0.2575   -8.6234   16.8582 C   0  0  0  0  0  0  0  0  0  0  0  0
    4.0614   -7.0367   27.0106 N   0  0  0  0  0  0  0  0  0  0  0  0
   -2.9133  -11.6279   18.7578 C   0  0  0  0  0  0  0  0  0  0  0  0
    4.5688  -10.1291   29.5758 C   0  0  0  0  0  0  0  0  0  0  0  0
    2.1008   -9.0410   29.1852 N   0  0  0  0  0  0  0  0  0  0  0  0
    3.4829  -10.5697   30.2091 N   0  0  0  0  0  0  0  0  0  0  0  0
   -0.3363   -6.1172   27.5628 C   0  0  0  0  0  0  0  0  0  0  0  0
    3.0331   -7.4400   27.6362 C   0  0  0  0  0  0  0  0  0  0  0  0
    5.4553   -8.5933   27.9644 C   0  0  0  0  0  0  0  0  0  0  0  0
   -2.3870  -12.8440   19.2512 C   0  0  0  0  0  0  0  0  0  0  0  0
    0.5331   -7.6964   16.2751 C   0  0  0  0  0  0  0  0  0  0  0  0
   -0.6740  -10.8737   18.0482 C   0  0  0  0  0  0  0  0  0  0  0  0
    5.6751  -10.5870   29.7637 O   0  0  0  0  0  0  0  0  0  0  0  0
    1.7612   -5.6483   26.7172 C   0  0  0  0  0  0  0  0  0  0  0  0
    0.2221   -9.8326   17.4055 C   0  0  0  0  0  0  0  0  0  0  0  0
    4.3850   -9.0730   28.6745 C   0  0  0  0  0  0  0  0  0  0  0  0
  1  7  4  0
  1 22  4  0
  2 17  4  0
  2 20  4  0
  2 28  4  0
  3  6  1  0
  3 19  1  0
  4 19  1  0
  4 26  1  0
  5 17  4  0
  5 18  4  0
  6 20  1  0
  6 26  1  0
  7 24  4  0
  8 15  4  0
  8 24  4  0
  9 14  4  0
  9 21  4  0
 10 12  4  0
 10 27  4  0
 11 12  4  0
 11 23  4  0
 13 23  4  0
 13 27  4  0
 14 20  4  0
 15 22  4  0
 16 18  4  0
 16 25  2  0
 16 28  4  0
 21 28  4  0
 24 27  1  0
M  END
$$$$

 Created by Python create_sdf_string function

 28 31  0  0  0  0  0  0  0  0999 V2000
   -1.0054  -13.0622   19.1198 C   0  0  0  0  0  0  0  0  0  0  0  0
    3.1478   -8.5360   28.5161 C   0  0  0  0  0  0  0  0  0  0  0  0
    0.5798   -7.1906   27.9330 C   0  0  0  0  0  0  0  0  0  0  0  0
    0.3978   -5.1561   26.6955 C   0  0  0  0  0  0  0  0  0  0  0  0
    2.3063  -10.0533   30.0125 C   0  0  0  0  0  0  0  0  0  0  0  0
    1.8591   -6.8254   27.4685 N   0  0  0  0  0  0  0  0  0  0  0  0
   -0.2167  -12.1055   18.5568 C   0  0  0  0  0  0  0  0  0  0  0  0
   -2.0661  -10.6994   18.1916 C   0  0  0  0  0  0  0  0  0  0  0  0
    5.2703   -7.5691   27.1123 C   0  0  0  0  0  0  0  0  0  0  0  0
    1.6204   -9.9887   17.2935 C   0  0  0  0  0  0  0  0  0  0  0  0
    1.8931   -7.9265   16.2047 C   0  0  0  0  0  0  0  0  0  0  0  0
    2.4396   -9.0801   16.7132 C   0  0  0  0  0  0  0  0  0  0  0  0
   -0.2575   -8.6234   16.8582 C   0  0  0  0  0  0  0  0  0  0  0  0
    4.0614   -7.0367   27.0106 N   0  0  0  0  0  0  0  0  0  0  0  0
   -2.9133  -11.6279   18.7578 C   0  0  0  0  0  0  0  0  0  0  0  0
    4.5688  -10.1291   29.5758 C   0  0  0  0  0  0  0  0  0  0  0  0
    2.1008   -9.0410   29.1852 N   0  0  0  0  0  0  0  0  0  0  0  0
    3.4829  -10.5697   30.2091 N   0  0  0  0  0  0  0  0  0  0  0  0
   -0.3363   -6.1172   27.5628 C   0  0  0  0  0  0  0  0  0  0  0  0
    3.0331   -7.4400   27.6362 C   0  0  0  0  0  0  0  0  0  0  0  0
    5.4553   -8.5933   27.9644 C   0  0  0  0  0  0  0  0  0  0  0  0
   -2.3870  -12.8440   19.2512 C   0  0  0  0  0  0  0  0  0  0  0  0
    0.5331   -7.6964   16.2751 C   0  0  0  0  0  0  0  0  0  0  0  0
   -0.6740  -10.8737   18.0482 C   0  0  0  0  0  0  0  0  0  0  0  0
    5.6751  -10.5870   29.7637 O   0  0  0  0  0  0  0  0  0  0  0  0
    1.7612   -5.6483   26.7172 C   0  0  0  0  0  0  0  0  0  0  0  0
    0.2221   -9.8326   17.4055 C   0  0  0  0  0  0  0  0  0  0  0  0
    4.3850   -9.0730   28.6745 C   0  0  0  0  0  0  0  0  0  0  0  0
  1  7  4  0
  1 22  4  0
  2 17  4  0
  2 20  4  0
  2 28  4  0
  3  6  1  0
  3 19  1  0
  4 19  1  0
  4 26  1  0
  5 17  4  0
  5 18  4  0
  6 20  1  0
  6 26  1  0
  7 24  4  0
  8 15  4  0
  8 24  4  0
  9 14  4  0
  9 21  4  0
 10 12  4  0
 10 27  4  0
 11 12  4  0
 11 23  4  0
 13 23  4  0
 13 27  4  0
 14 20  4  0
 15 22  4  0
 16 18  4  0
 16 25  2  0
 16 28  4  0
 21 28  4  0
 24 27  1  0
M  END
$$$$

 Created by Python create_sdf_string function

 28 31  0  0  0  0  0  0  0  0999 V2000
   -1.0054  -13.0622   19.1198 C   0  0  0  0  0  0  0  0  0  0  0  0
    3.1478   -8.5360   28.5161 C   0  0  0  0  0  0  0  0  0  0  0  0
    0.5798   -7.1906   27.9330 C   0  0  0  0  0  0  0  0  0  0  0  0
    0.3978   -5.1561   26.6955 C   0  0  0  0  0  0  0  0  0  0  0  0
    2.3063  -10.0533   30.0125 C   0  0  0  0  0  0  0  0  0  0  0  0
    1.8591   -6.8254   27.4685 N   0  0  0  0  0  0  0  0  0  0  0  0
   -0.2167  -12.1055   18.5568 C   0  0  0  0  0  0  0  0  0  0  0  0
   -2.0661  -10.6994   18.1916 C   0  0  0  0  0  0  0  0  0  0  0  0
    5.2703   -7.5691   27.1123 C   0  0  0  0  0  0  0  0  0  0  0  0
    1.6204   -9.9887   17.2935 C   0  0  0  0  0  0  0  0  0  0  0  0
    1.8931   -7.9265   16.2047 C   0  0  0  0  0  0  0  0  0  0  0  0
    2.4396   -9.0801   16.7132 C   0  0  0  0  0  0  0  0  0  0  0  0
   -0.2575   -8.6234   16.8582 C   0  0  0  0  0  0  0  0  0  0  0  0
    4.0614   -7.0367   27.0106 N   0  0  0  0  0  0  0  0  0  0  0  0
   -2.9133  -11.6279   18.7578 C   0  0  0  0  0  0  0  0  0  0  0  0
    4.5688  -10.1291   29.5758 C   0  0  0  0  0  0  0  0  0  0  0  0
    2.1008   -9.0410   29.1852 N   0  0  0  0  0  0  0  0  0  0  0  0
    3.4829  -10.5697   30.2091 N   0  0  0  0  0  0  0  0  0  0  0  0
   -0.3363   -6.1172   27.5628 C   0  0  0  0  0  0  0  0  0  0  0  0
    3.0331   -7.4400   27.6362 C   0  0  0  0  0  0  0  0  0  0  0  0
    5.4553   -8.5933   27.9644 C   0  0  0  0  0  0  0  0  0  0  0  0
   -2.3870  -12.8440   19.2512 C   0  0  0  0  0  0  0  0  0  0  0  0
    0.5331   -7.6964   16.2751 C   0  0  0  0  0  0  0  0  0  0  0  0
   -0.6740  -10.8737   18.0482 C   0  0  0  0  0  0  0  0  0  0  0  0
    5.6751  -10.5870   29.7637 O   0  0  0  0  0  0  0  0  0  0  0  0
    1.7612   -5.6483   26.7172 C   0  0  0  0  0  0  0  0  0  0  0  0
    0.2221   -9.8326   17.4055 C   0  0  0  0  0  0  0  0  0  0  0  0
    4.3850   -9.0730   28.6745 C   0  0  0  0  0  0  0  0  0  0  0  0
  1  7  4  0
  1 22  4  0
  2 17  4  0
  2 20  4  0
  2 28  4  0
  3  6  1  0
  3 19  1  0
  4 19  1  0
  4 26  1  0
  5 17  4  0
  5 18  4  0
  6 20  1  0
  6 26  1  0
  7 24  4  0
  8 15  4  0
  8 24  4  0
  9 14  4  0
  9 21  4  0
 10 12  4  0
 10 27  4  0
 11 12  4  0
 11 23  4  0
 13 23  4  0
 13 27  4  0
 14 20  4  0
 15 22  4  0
 16 18  4  0
 16 25  2  0
 16 28  4  0
 21 28  4  0
 24 27  1  0
M  END
$$$$

 Created by Python create_sdf_string function

 28 31  0  0  0  0  0  0  0  0999 V2000
   -1.0054  -13.0622   19.1198 C   0  0  0  0  0  0  0  0  0  0  0  0
    3.1478   -8.5360   28.5161 C   0  0  0  0  0  0  0  0  0  0  0  0
    0.5798   -7.1906   27.9330 C   0  0  0  0  0  0  0  0  0  0  0  0
    0.3978   -5.1561   26.6955 C   0  0  0  0  0  0  0  0  0  0  0  0
    2.3063  -10.0533   30.0125 C   0  0  0  0  0  0  0  0  0  0  0  0
    1.8591   -6.8254   27.4685 N   0  0  0  0  0  0  0  0  0  0  0  0
   -0.2167  -12.1055   18.5568 C   0  0  0  0  0  0  0  0  0  0  0  0
   -2.0661  -10.6994   18.1916 C   0  0  0  0  0  0  0  0  0  0  0  0
    5.2703   -7.5691   27.1123 C   0  0  0  0  0  0  0  0  0  0  0  0
    1.6204   -9.9887   17.2935 C   0  0  0  0  0  0  0  0  0  0  0  0
    1.8931   -7.9265   16.2047 C   0  0  0  0  0  0  0  0  0  0  0  0
    2.4396   -9.0801   16.7132 C   0  0  0  0  0  0  0  0  0  0  0  0
   -0.2575   -8.6234   16.8582 C   0  0  0  0  0  0  0  0  0  0  0  0
    4.0614   -7.0367   27.0106 N   0  0  0  0  0  0  0  0  0  0  0  0
   -2.9133  -11.6279   18.7578 C   0  0  0  0  0  0  0  0  0  0  0  0
    4.5688  -10.1291   29.5758 C   0  0  0  0  0  0  0  0  0  0  0  0
    2.1008   -9.0410   29.1852 N   0  0  0  0  0  0  0  0  0  0  0  0
    3.4829  -10.5697   30.2091 N   0  0  0  0  0  0  0  0  0  0  0  0
   -0.3363   -6.1172   27.5628 C   0  0  0  0  0  0  0  0  0  0  0  0
    3.0331   -7.4400   27.6362 C   0  0  0  0  0  0  0  0  0  0  0  0
    5.4553   -8.5933   27.9644 C   0  0  0  0  0  0  0  0  0  0  0  0
   -2.3870  -12.8440   19.2512 C   0  0  0  0  0  0  0  0  0  0  0  0
    0.5331   -7.6964   16.2751 C   0  0  0  0  0  0  0  0  0  0  0  0
   -0.6740  -10.8737   18.0482 C   0  0  0  0  0  0  0  0  0  0  0  0
    5.6751  -10.5870   29.7637 O   0  0  0  0  0  0  0  0  0  0  0  0
    1.7612   -5.6483   26.7172 C   0  0  0  0  0  0  0  0  0  0  0  0
    0.2221   -9.8326   17.4055 C   0  0  0  0  0  0  0  0  0  0  0  0
    4.3850   -9.0730   28.6745 C   0  0  0  0  0  0  0  0  0  0  0  0
  1  7  4  0
  1 22  4  0
  2 17  4  0
  2 20  4  0
  2 28  4  0
  3  6  1  0
  3 19  1  0
  4 19  1  0
  4 26  1  0
  5 17  4  0
  5 18  4  0
  6 20  1  0
  6 26  1  0
  7 24  4  0
  8 15  4  0
  8 24  4  0
  9 14  4  0
  9 21  4  0
 10 12  4  0
 10 27  4  0
 11 12  4  0
 11 23  4  0
 13 23  4  0
 13 27  4  0
 14 20  4  0
 15 22  4  0
 16 18  4  0
 16 25  2  0
 16 28  4  0
 21 28  4  0
 24 27  1  0
M  END
$$$$

 Created by Python create_sdf_string function

 28 31  0  0  0  0  0  0  0  0999 V2000
   -1.0054  -13.0622   19.1198 C   0  0  0  0  0  0  0  0  0  0  0  0
    3.1478   -8.5360   28.5161 C   0  0  0  0  0  0  0  0  0  0  0  0
    0.5798   -7.1906   27.9330 C   0  0  0  0  0  0  0  0  0  0  0  0
    0.3978   -5.1561   26.6955 C   0  0  0  0  0  0  0  0  0  0  0  0
    2.3063  -10.0533   30.0125 C   0  0  0  0  0  0  0  0  0  0  0  0
    1.8591   -6.8254   27.4685 N   0  0  0  0  0  0  0  0  0  0  0  0
   -0.2167  -12.1055   18.5568 C   0  0  0  0  0  0  0  0  0  0  0  0
   -2.0661  -10.6994   18.1916 C   0  0  0  0  0  0  0  0  0  0  0  0
    5.2703   -7.5691   27.1123 C   0  0  0  0  0  0  0  0  0  0  0  0
    1.6204   -9.9887   17.2935 C   0  0  0  0  0  0  0  0  0  0  0  0
    1.8931   -7.9265   16.2047 C   0  0  0  0  0  0  0  0  0  0  0  0
    2.4396   -9.0801   16.7132 C   0  0  0  0  0  0  0  0  0  0  0  0
   -0.2575   -8.6234   16.8582 C   0  0  0  0  0  0  0  0  0  0  0  0
    4.0614   -7.0367   27.0106 N   0  0  0  0  0  0  0  0  0  0  0  0
   -2.9133  -11.6279   18.7578 C   0  0  0  0  0  0  0  0  0  0  0  0
    4.5688  -10.1291   29.5758 C   0  0  0  0  0  0  0  0  0  0  0  0
    2.1008   -9.0410   29.1852 N   0  0  0  0  0  0  0  0  0  0  0  0
    3.4829  -10.5697   30.2091 N   0  0  0  0  0  0  0  0  0  0  0  0
   -0.3363   -6.1172   27.5628 C   0  0  0  0  0  0  0  0  0  0  0  0
    3.0331   -7.4400   27.6362 C   0  0  0  0  0  0  0  0  0  0  0  0
    5.4553   -8.5933   27.9644 C   0  0  0  0  0  0  0  0  0  0  0  0
   -2.3870  -12.8440   19.2512 C   0  0  0  0  0  0  0  0  0  0  0  0
    0.5331   -7.6964   16.2751 C   0  0  0  0  0  0  0  0  0  0  0  0
   -0.6740  -10.8737   18.0482 C   0  0  0  0  0  0  0  0  0  0  0  0
    5.6751  -10.5870   29.7637 O   0  0  0  0  0  0  0  0  0  0  0  0
    1.7612   -5.6483   26.7172 C   0  0  0  0  0  0  0  0  0  0  0  0
    0.2221   -9.8326   17.4055 C   0  0  0  0  0  0  0  0  0  0  0  0
    4.3850   -9.0730   28.6745 C   0  0  0  0  0  0  0  0  0  0  0  0
  1  7  4  0
  1 22  4  0
  2 17  4  0
  2 20  4  0
  2 28  4  0
  3  6  1  0
  3 19  1  0
  4 19  1  0
  4 26  1  0
  5 17  4  0
  5 18  4  0
  6 20  1  0
  6 26  1  0
  7 24  4  0
  8 15  4  0
  8 24  4  0
  9 14  4  0
  9 21  4  0
 10 12  4  0
 10 27  4  0
 11 12  4  0
 11 23  4  0
 13 23  4  0
 13 27  4  0
 14 20  4  0
 15 22  4  0
 16 18  4  0
 16 25  2  0
 16 28  4  0
 21 28  4  0
 24 27  1  0
M  END
$$$$

 Created by Python create_sdf_string function

 28 31  0  0  0  0  0  0  0  0999 V2000
   -1.0054  -13.0622   19.1198 C   0  0  0  0  0  0  0  0  0  0  0  0
    3.1478   -8.5360   28.5161 C   0  0  0  0  0  0  0  0  0  0  0  0
    0.5798   -7.1906   27.9330 C   0  0  0  0  0  0  0  0  0  0  0  0
    0.3978   -5.1561   26.6955 C   0  0  0  0  0  0  0  0  0  0  0  0
    2.3063  -10.0533   30.0125 C   0  0  0  0  0  0  0  0  0  0  0  0
    1.8591   -6.8254   27.4685 N   0  0  0  0  0  0  0  0  0  0  0  0
   -0.2167  -12.1055   18.5568 C   0  0  0  0  0  0  0  0  0  0  0  0
   -2.0661  -10.6994   18.1916 C   0  0  0  0  0  0  0  0  0  0  0  0
    5.2703   -7.5691   27.1123 C   0  0  0  0  0  0  0  0  0  0  0  0
    1.6204   -9.9887   17.2935 C   0  0  0  0  0  0  0  0  0  0  0  0
    1.8931   -7.9265   16.2047 C   0  0  0  0  0  0  0  0  0  0  0  0
    2.4396   -9.0801   16.7132 C   0  0  0  0  0  0  0  0  0  0  0  0
   -0.2575   -8.6234   16.8582 C   0  0  0  0  0  0  0  0  0  0  0  0
    4.0614   -7.0367   27.0106 N   0  0  0  0  0  0  0  0  0  0  0  0
   -2.9133  -11.6279   18.7578 C   0  0  0  0  0  0  0  0  0  0  0  0
    4.5688  -10.1291   29.5758 C   0  0  0  0  0  0  0  0  0  0  0  0
    2.1008   -9.0410   29.1852 N   0  0  0  0  0  0  0  0  0  0  0  0
    3.4829  -10.5697   30.2091 N   0  0  0  0  0  0  0  0  0  0  0  0
   -0.3363   -6.1172   27.5628 C   0  0  0  0  0  0  0  0  0  0  0  0
    3.0331   -7.4400   27.6362 C   0  0  0  0  0  0  0  0  0  0  0  0
    5.4553   -8.5933   27.9644 C   0  0  0  0  0  0  0  0  0  0  0  0
   -2.3870  -12.8440   19.2512 C   0  0  0  0  0  0  0  0  0  0  0  0
    0.5331   -7.6964   16.2751 C   0  0  0  0  0  0  0  0  0  0  0  0
   -0.6740  -10.8737   18.0482 C   0  0  0  0  0  0  0  0  0  0  0  0
    5.6751  -10.5870   29.7637 O   0  0  0  0  0  0  0  0  0  0  0  0
    1.7612   -5.6483   26.7172 C   0  0  0  0  0  0  0  0  0  0  0  0
    0.2221   -9.8326   17.4055 C   0  0  0  0  0  0  0  0  0  0  0  0
    4.3850   -9.0730   28.6745 C   0  0  0  0  0  0  0  0  0  0  0  0
  1  7  4  0
  1 22  4  0
  2 17  4  0
  2 20  4  0
  2 28  4  0
  3  6  1  0
  3 19  1  0
  4 19  1  0
  4 26  1  0
  5 17  4  0
  5 18  4  0
  6 20  1  0
  6 26  1  0
  7 24  4  0
  8 15  4  0
  8 24  4  0
  9 14  4  0
  9 21  4  0
 10 12  4  0
 10 27  4  0
 11 12  4  0
 11 23  4  0
 13 23  4  0
 13 27  4  0
 14 20  4  0
 15 22  4  0
 16 18  4  0
 16 25  2  0
 16 28  4  0
 21 28  4  0
 24 27  1  0
M  END
$$$$

 Created by Python create_sdf_string function

 28 31  0  0  0  0  0  0  0  0999 V2000
   -1.0054  -13.0622   19.1198 C   0  0  0  0  0  0  0  0  0  0  0  0
    3.1478   -8.5360   28.5161 C   0  0  0  0  0  0  0  0  0  0  0  0
    0.5798   -7.1906   27.9330 C   0  0  0  0  0  0  0  0  0  0  0  0
    0.3978   -5.1561   26.6955 C   0  0  0  0  0  0  0  0  0  0  0  0
    2.3063  -10.0533   30.0125 C   0  0  0  0  0  0  0  0  0  0  0  0
    1.8591   -6.8254   27.4685 N   0  0  0  0  0  0  0  0  0  0  0  0
   -0.2167  -12.1055   18.5568 C   0  0  0  0  0  0  0  0  0  0  0  0
   -2.0661  -10.6994   18.1916 C   0  0  0  0  0  0  0  0  0  0  0  0
    5.2703   -7.5691   27.1123 C   0  0  0  0  0  0  0  0  0  0  0  0
    1.6204   -9.9887   17.2935 C   0  0  0  0  0  0  0  0  0  0  0  0
    1.8931   -7.9265   16.2047 C   0  0  0  0  0  0  0  0  0  0  0  0
    2.4396   -9.0801   16.7132 C   0  0  0  0  0  0  0  0  0  0  0  0
   -0.2575   -8.6234   16.8582 C   0  0  0  0  0  0  0  0  0  0  0  0
    4.0614   -7.0367   27.0106 N   0  0  0  0  0  0  0  0  0  0  0  0
   -2.9133  -11.6279   18.7578 C   0  0  0  0  0  0  0  0  0  0  0  0
    4.5688  -10.1291   29.5758 C   0  0  0  0  0  0  0  0  0  0  0  0
    2.1008   -9.0410   29.1852 N   0  0  0  0  0  0  0  0  0  0  0  0
    3.4829  -10.5697   30.2091 N   0  0  0  0  0  0  0  0  0  0  0  0
   -0.3363   -6.1172   27.5628 C   0  0  0  0  0  0  0  0  0  0  0  0
    3.0331   -7.4400   27.6362 C   0  0  0  0  0  0  0  0  0  0  0  0
    5.4553   -8.5933   27.9644 C   0  0  0  0  0  0  0  0  0  0  0  0
   -2.3870  -12.8440   19.2512 C   0  0  0  0  0  0  0  0  0  0  0  0
    0.5331   -7.6964   16.2751 C   0  0  0  0  0  0  0  0  0  0  0  0
   -0.6740  -10.8737   18.0482 C   0  0  0  0  0  0  0  0  0  0  0  0
    5.6751  -10.5870   29.7637 O   0  0  0  0  0  0  0  0  0  0  0  0
    1.7612   -5.6483   26.7172 C   0  0  0  0  0  0  0  0  0  0  0  0
    0.2221   -9.8326   17.4055 C   0  0  0  0  0  0  0  0  0  0  0  0
    4.3850   -9.0730   28.6745 C   0  0  0  0  0  0  0  0  0  0  0  0
  1  7  4  0
  1 22  4  0
  2 17  4  0
  2 20  4  0
  2 28  4  0
  3  6  1  0
  3 19  1  0
  4 19  1  0
  4 26  1  0
  5 17  4  0
  5 18  4  0
  6 20  1  0
  6 26  1  0
  7 24  4  0
  8 15  4  0
  8 24  4  0
  9 14  4  0
  9 21  4  0
 10 12  4  0
 10 27  4  0
 11 12  4  0
 11 23  4  0
 13 23  4  0
 13 27  4  0
 14 20  4  0
 15 22  4  0
 16 18  4  0
 16 25  2  0
 16 28  4  0
 21 28  4  0
 24 27  1  0
M  END
$$$$

 Created by Python create_sdf_string function

 28 31  0  0  0  0  0  0  0  0999 V2000
   -1.0054  -13.0622   19.1198 C   0  0  0  0  0  0  0  0  0  0  0  0
    3.1478   -8.5360   28.5161 C   0  0  0  0  0  0  0  0  0  0  0  0
    0.5798   -7.1906   27.9330 C   0  0  0  0  0  0  0  0  0  0  0  0
    0.3978   -5.1561   26.6955 C   0  0  0  0  0  0  0  0  0  0  0  0
    2.3063  -10.0533   30.0125 C   0  0  0  0  0  0  0  0  0  0  0  0
    1.8591   -6.8254   27.4685 N   0  0  0  0  0  0  0  0  0  0  0  0
   -0.2167  -12.1055   18.5568 C   0  0  0  0  0  0  0  0  0  0  0  0
   -2.0661  -10.6994   18.1916 C   0  0  0  0  0  0  0  0  0  0  0  0
    5.2703   -7.5691   27.1123 C   0  0  0  0  0  0  0  0  0  0  0  0
    1.6204   -9.9887   17.2935 C   0  0  0  0  0  0  0  0  0  0  0  0
    1.8931   -7.9265   16.2047 C   0  0  0  0  0  0  0  0  0  0  0  0
    2.4396   -9.0801   16.7132 C   0  0  0  0  0  0  0  0  0  0  0  0
   -0.2575   -8.6234   16.8582 C   0  0  0  0  0  0  0  0  0  0  0  0
    4.0614   -7.0367   27.0106 N   0  0  0  0  0  0  0  0  0  0  0  0
   -2.9133  -11.6279   18.7578 C   0  0  0  0  0  0  0  0  0  0  0  0
    4.5688  -10.1291   29.5758 C   0  0  0  0  0  0  0  0  0  0  0  0
    2.1008   -9.0410   29.1852 N   0  0  0  0  0  0  0  0  0  0  0  0
    3.4829  -10.5697   30.2091 N   0  0  0  0  0  0  0  0  0  0  0  0
   -0.3363   -6.1172   27.5628 C   0  0  0  0  0  0  0  0  0  0  0  0
    3.0331   -7.4400   27.6362 C   0  0  0  0  0  0  0  0  0  0  0  0
    5.4553   -8.5933   27.9644 C   0  0  0  0  0  0  0  0  0  0  0  0
   -2.3870  -12.8440   19.2512 C   0  0  0  0  0  0  0  0  0  0  0  0
    0.5331   -7.6964   16.2751 C   0  0  0  0  0  0  0  0  0  0  0  0
   -0.6740  -10.8737   18.0482 C   0  0  0  0  0  0  0  0  0  0  0  0
    5.6751  -10.5870   29.7637 O   0  0  0  0  0  0  0  0  0  0  0  0
    1.7612   -5.6483   26.7172 C   0  0  0  0  0  0  0  0  0  0  0  0
    0.2221   -9.8326   17.4055 C   0  0  0  0  0  0  0  0  0  0  0  0
    4.3850   -9.0730   28.6745 C   0  0  0  0  0  0  0  0  0  0  0  0
  1  7  4  0
  1 22  4  0
  2 17  4  0
  2 20  4  0
  2 28  4  0
  3  6  1  0
  3 19  1  0
  4 19  1  0
  4 26  1  0
  5 17  4  0
  5 18  4  0
  6 20  1  0
  6 26  1  0
  7 24  4  0
  8 15  4  0
  8 24  4  0
  9 14  4  0
  9 21  4  0
 10 12  4  0
 10 27  4  0
 11 12  4  0
 11 23  4  0
 13 23  4  0
 13 27  4  0
 14 20  4  0
 15 22  4  0
 16 18  4  0
 16 25  2  0
 16 28  4  0
 21 28  4  0
 24 27  1  0
M  END
$$$$

 Created by Python create_sdf_string function

 28 31  0  0  0  0  0  0  0  0999 V2000
   -1.0054  -13.0622   19.1198 C   0  0  0  0  0  0  0  0  0  0  0  0
    3.1478   -8.5360   28.5161 C   0  0  0  0  0  0  0  0  0  0  0  0
    0.5798   -7.1906   27.9330 C   0  0  0  0  0  0  0  0  0  0  0  0
    0.3978   -5.1561   26.6955 C   0  0  0  0  0  0  0  0  0  0  0  0
    2.3063  -10.0533   30.0125 C   0  0  0  0  0  0  0  0  0  0  0  0
    1.8591   -6.8254   27.4685 N   0  0  0  0  0  0  0  0  0  0  0  0
   -0.2167  -12.1055   18.5568 C   0  0  0  0  0  0  0  0  0  0  0  0
   -2.0661  -10.6994   18.1916 C   0  0  0  0  0  0  0  0  0  0  0  0
    5.2703   -7.5691   27.1123 C   0  0  0  0  0  0  0  0  0  0  0  0
    1.6204   -9.9887   17.2935 C   0  0  0  0  0  0  0  0  0  0  0  0
    1.8931   -7.9265   16.2047 C   0  0  0  0  0  0  0  0  0  0  0  0
    2.4396   -9.0801   16.7132 C   0  0  0  0  0  0  0  0  0  0  0  0
   -0.2575   -8.6234   16.8582 C   0  0  0  0  0  0  0  0  0  0  0  0
    4.0614   -7.0367   27.0106 N   0  0  0  0  0  0  0  0  0  0  0  0
   -2.9133  -11.6279   18.7578 C   0  0  0  0  0  0  0  0  0  0  0  0
    4.5688  -10.1291   29.5758 C   0  0  0  0  0  0  0  0  0  0  0  0
    2.1008   -9.0410   29.1852 N   0  0  0  0  0  0  0  0  0  0  0  0
    3.4829  -10.5697   30.2091 N   0  0  0  0  0  0  0  0  0  0  0  0
   -0.3363   -6.1172   27.5628 C   0  0  0  0  0  0  0  0  0  0  0  0
    3.0331   -7.4400   27.6362 C   0  0  0  0  0  0  0  0  0  0  0  0
    5.4553   -8.5933   27.9644 C   0  0  0  0  0  0  0  0  0  0  0  0
   -2.3870  -12.8440   19.2512 C   0  0  0  0  0  0  0  0  0  0  0  0
    0.5331   -7.6964   16.2751 C   0  0  0  0  0  0  0  0  0  0  0  0
   -0.6740  -10.8737   18.0482 C   0  0  0  0  0  0  0  0  0  0  0  0
    5.6751  -10.5870   29.7637 O   0  0  0  0  0  0  0  0  0  0  0  0
    1.7612   -5.6483   26.7172 C   0  0  0  0  0  0  0  0  0  0  0  0
    0.2221   -9.8326   17.4055 C   0  0  0  0  0  0  0  0  0  0  0  0
    4.3850   -9.0730   28.6745 C   0  0  0  0  0  0  0  0  0  0  0  0
  1  7  4  0
  1 22  4  0
  2 17  4  0
  2 20  4  0
  2 28  4  0
  3  6  1  0
  3 19  1  0
  4 19  1  0
  4 26  1  0
  5 17  4  0
  5 18  4  0
  6 20  1  0
  6 26  1  0
  7 24  4  0
  8 15  4  0
  8 24  4  0
  9 14  4  0
  9 21  4  0
 10 12  4  0
 10 27  4  0
 11 12  4  0
 11 23  4  0
 13 23  4  0
 13 27  4  0
 14 20  4  0
 15 22  4  0
 16 18  4  0
 16 25  2  0
 16 28  4  0
 21 28  4  0
 24 27  1  0
M  END
$$$$

 Created by Python create_sdf_string function

 28 31  0  0  0  0  0  0  0  0999 V2000
   -1.0054  -13.0622   19.1198 C   0  0  0  0  0  0  0  0  0  0  0  0
    3.1478   -8.5360   28.5161 C   0  0  0  0  0  0  0  0  0  0  0  0
    0.5798   -7.1906   27.9330 C   0  0  0  0  0  0  0  0  0  0  0  0
    0.3978   -5.1561   26.6955 C   0  0  0  0  0  0  0  0  0  0  0  0
    2.3063  -10.0533   30.0125 C   0  0  0  0  0  0  0  0  0  0  0  0
    1.8591   -6.8254   27.4685 N   0  0  0  0  0  0  0  0  0  0  0  0
   -0.2167  -12.1055   18.5568 C   0  0  0  0  0  0  0  0  0  0  0  0
   -2.0661  -10.6994   18.1916 C   0  0  0  0  0  0  0  0  0  0  0  0
    5.2703   -7.5691   27.1123 C   0  0  0  0  0  0  0  0  0  0  0  0
    1.6204   -9.9887   17.2935 C   0  0  0  0  0  0  0  0  0  0  0  0
    1.8931   -7.9265   16.2047 C   0  0  0  0  0  0  0  0  0  0  0  0
    2.4396   -9.0801   16.7132 C   0  0  0  0  0  0  0  0  0  0  0  0
   -0.2575   -8.6234   16.8582 C   0  0  0  0  0  0  0  0  0  0  0  0
    4.0614   -7.0367   27.0106 N   0  0  0  0  0  0  0  0  0  0  0  0
   -2.9133  -11.6279   18.7578 C   0  0  0  0  0  0  0  0  0  0  0  0
    4.5688  -10.1291   29.5758 C   0  0  0  0  0  0  0  0  0  0  0  0
    2.1008   -9.0410   29.1852 N   0  0  0  0  0  0  0  0  0  0  0  0
    3.4829  -10.5697   30.2091 N   0  0  0  0  0  0  0  0  0  0  0  0
   -0.3363   -6.1172   27.5628 C   0  0  0  0  0  0  0  0  0  0  0  0
    3.0331   -7.4400   27.6362 C   0  0  0  0  0  0  0  0  0  0  0  0
    5.4553   -8.5933   27.9644 C   0  0  0  0  0  0  0  0  0  0  0  0
   -2.3870  -12.8440   19.2512 C   0  0  0  0  0  0  0  0  0  0  0  0
    0.5331   -7.6964   16.2751 C   0  0  0  0  0  0  0  0  0  0  0  0
   -0.6740  -10.8737   18.0482 C   0  0  0  0  0  0  0  0  0  0  0  0
    5.6751  -10.5870   29.7637 O   0  0  0  0  0  0  0  0  0  0  0  0
    1.7612   -5.6483   26.7172 C   0  0  0  0  0  0  0  0  0  0  0  0
    0.2221   -9.8326   17.4055 C   0  0  0  0  0  0  0  0  0  0  0  0
    4.3850   -9.0730   28.6745 C   0  0  0  0  0  0  0  0  0  0  0  0
  1  7  4  0
  1 22  4  0
  2 17  4  0
  2 20  4  0
  2 28  4  0
  3  6  1  0
  3 19  1  0
  4 19  1  0
  4 26  1  0
  5 17  4  0
  5 18  4  0
  6 20  1  0
  6 26  1  0
  7 24  4  0
  8 15  4  0
  8 24  4  0
  9 14  4  0
  9 21  4  0
 10 12  4  0
 10 27  4  0
 11 12  4  0
 11 23  4  0
 13 23  4  0
 13 27  4  0
 14 20  4  0
 15 22  4  0
 16 18  4  0
 16 25  2  0
 16 28  4  0
 21 28  4  0
 24 27  1  0
M  END
$$$$

 Created by Python create_sdf_string function

 28 31  0  0  0  0  0  0  0  0999 V2000
   -1.0054  -13.0622   19.1198 C   0  0  0  0  0  0  0  0  0  0  0  0
    3.1478   -8.5360   28.5161 C   0  0  0  0  0  0  0  0  0  0  0  0
    0.5798   -7.1906   27.9330 C   0  0  0  0  0  0  0  0  0  0  0  0
    0.3978   -5.1561   26.6955 C   0  0  0  0  0  0  0  0  0  0  0  0
    2.3063  -10.0533   30.0125 C   0  0  0  0  0  0  0  0  0  0  0  0
    1.8591   -6.8254   27.4685 N   0  0  0  0  0  0  0  0  0  0  0  0
   -0.2167  -12.1055   18.5568 C   0  0  0  0  0  0  0  0  0  0  0  0
   -2.0661  -10.6994   18.1916 C   0  0  0  0  0  0  0  0  0  0  0  0
    5.2703   -7.5691   27.1123 C   0  0  0  0  0  0  0  0  0  0  0  0
    1.6204   -9.9887   17.2935 C   0  0  0  0  0  0  0  0  0  0  0  0
    1.8931   -7.9265   16.2047 C   0  0  0  0  0  0  0  0  0  0  0  0
    2.4396   -9.0801   16.7132 C   0  0  0  0  0  0  0  0  0  0  0  0
   -0.2575   -8.6234   16.8582 C   0  0  0  0  0  0  0  0  0  0  0  0
    4.0614   -7.0367   27.0106 N   0  0  0  0  0  0  0  0  0  0  0  0
   -2.9133  -11.6279   18.7578 C   0  0  0  0  0  0  0  0  0  0  0  0
    4.5688  -10.1291   29.5758 C   0  0  0  0  0  0  0  0  0  0  0  0
    2.1008   -9.0410   29.1852 N   0  0  0  0  0  0  0  0  0  0  0  0
    3.4829  -10.5697   30.2091 N   0  0  0  0  0  0  0  0  0  0  0  0
   -0.3363   -6.1172   27.5628 C   0  0  0  0  0  0  0  0  0  0  0  0
    3.0331   -7.4400   27.6362 C   0  0  0  0  0  0  0  0  0  0  0  0
    5.4553   -8.5933   27.9644 C   0  0  0  0  0  0  0  0  0  0  0  0
   -2.3870  -12.8440   19.2512 C   0  0  0  0  0  0  0  0  0  0  0  0
    0.5331   -7.6964   16.2751 C   0  0  0  0  0  0  0  0  0  0  0  0
   -0.6740  -10.8737   18.0482 C   0  0  0  0  0  0  0  0  0  0  0  0
    5.6751  -10.5870   29.7637 O   0  0  0  0  0  0  0  0  0  0  0  0
    1.7612   -5.6483   26.7172 C   0  0  0  0  0  0  0  0  0  0  0  0
    0.2221   -9.8326   17.4055 C   0  0  0  0  0  0  0  0  0  0  0  0
    4.3850   -9.0730   28.6745 C   0  0  0  0  0  0  0  0  0  0  0  0
  1  7  4  0
  1 22  4  0
  2 17  4  0
  2 20  4  0
  2 28  4  0
  3  6  1  0
  3 19  1  0
  4 19  1  0
  4 26  1  0
  5 17  4  0
  5 18  4  0
  6 20  1  0
  6 26  1  0
  7 24  4  0
  8 15  4  0
  8 24  4  0
  9 14  4  0
  9 21  4  0
 10 12  4  0
 10 27  4  0
 11 12  4  0
 11 23  4  0
 13 23  4  0
 13 27  4  0
 14 20  4  0
 15 22  4  0
 16 18  4  0
 16 25  2  0
 16 28  4  0
 21 28  4  0
 24 27  1  0
M  END
$$$$

 Created by Python create_sdf_string function

 28 31  0  0  0  0  0  0  0  0999 V2000
   -1.0054  -13.0622   19.1198 C   0  0  0  0  0  0  0  0  0  0  0  0
    3.1478   -8.5360   28.5161 C   0  0  0  0  0  0  0  0  0  0  0  0
    0.5798   -7.1906   27.9330 C   0  0  0  0  0  0  0  0  0  0  0  0
    0.3978   -5.1561   26.6955 C   0  0  0  0  0  0  0  0  0  0  0  0
    2.3063  -10.0533   30.0125 C   0  0  0  0  0  0  0  0  0  0  0  0
    1.8591   -6.8254   27.4685 N   0  0  0  0  0  0  0  0  0  0  0  0
   -0.2167  -12.1055   18.5568 C   0  0  0  0  0  0  0  0  0  0  0  0
   -2.0661  -10.6994   18.1916 C   0  0  0  0  0  0  0  0  0  0  0  0
    5.2703   -7.5691   27.1123 C   0  0  0  0  0  0  0  0  0  0  0  0
    1.6204   -9.9887   17.2935 C   0  0  0  0  0  0  0  0  0  0  0  0
    1.8931   -7.9265   16.2047 C   0  0  0  0  0  0  0  0  0  0  0  0
    2.4396   -9.0801   16.7132 C   0  0  0  0  0  0  0  0  0  0  0  0
   -0.2575   -8.6234   16.8582 C   0  0  0  0  0  0  0  0  0  0  0  0
    4.0614   -7.0367   27.0106 N   0  0  0  0  0  0  0  0  0  0  0  0
   -2.9133  -11.6279   18.7578 C   0  0  0  0  0  0  0  0  0  0  0  0
    4.5688  -10.1291   29.5758 C   0  0  0  0  0  0  0  0  0  0  0  0
    2.1008   -9.0410   29.1852 N   0  0  0  0  0  0  0  0  0  0  0  0
    3.4829  -10.5697   30.2091 N   0  0  0  0  0  0  0  0  0  0  0  0
   -0.3363   -6.1172   27.5628 C   0  0  0  0  0  0  0  0  0  0  0  0
    3.0331   -7.4400   27.6362 C   0  0  0  0  0  0  0  0  0  0  0  0
    5.4553   -8.5933   27.9644 C   0  0  0  0  0  0  0  0  0  0  0  0
   -2.3870  -12.8440   19.2512 C   0  0  0  0  0  0  0  0  0  0  0  0
    0.5331   -7.6964   16.2751 C   0  0  0  0  0  0  0  0  0  0  0  0
   -0.6740  -10.8737   18.0482 C   0  0  0  0  0  0  0  0  0  0  0  0
    5.6751  -10.5870   29.7637 O   0  0  0  0  0  0  0  0  0  0  0  0
    1.7612   -5.6483   26.7172 C   0  0  0  0  0  0  0  0  0  0  0  0
    0.2221   -9.8326   17.4055 C   0  0  0  0  0  0  0  0  0  0  0  0
    4.3850   -9.0730   28.6745 C   0  0  0  0  0  0  0  0  0  0  0  0
  1  7  4  0
  1 22  4  0
  2 17  4  0
  2 20  4  0
  2 28  4  0
  3  6  1  0
  3 19  1  0
  4 19  1  0
  4 26  1  0
  5 17  4  0
  5 18  4  0
  6 20  1  0
  6 26  1  0
  7 24  4  0
  8 15  4  0
  8 24  4  0
  9 14  4  0
  9 21  4  0
 10 12  4  0
 10 27  4  0
 11 12  4  0
 11 23  4  0
 13 23  4  0
 13 27  4  0
 14 20  4  0
 15 22  4  0
 16 18  4  0
 16 25  2  0
 16 28  4  0
 21 28  4  0
 24 27  1  0
M  END
$$$$

 Created by Python create_sdf_string function

 28 31  0  0  0  0  0  0  0  0999 V2000
   -1.0054  -13.0622   19.1198 C   0  0  0  0  0  0  0  0  0  0  0  0
    3.1478   -8.5360   28.5161 C   0  0  0  0  0  0  0  0  0  0  0  0
    0.5798   -7.1906   27.9330 C   0  0  0  0  0  0  0  0  0  0  0  0
    0.3978   -5.1561   26.6955 C   0  0  0  0  0  0  0  0  0  0  0  0
    2.3063  -10.0533   30.0125 C   0  0  0  0  0  0  0  0  0  0  0  0
    1.8591   -6.8254   27.4685 N   0  0  0  0  0  0  0  0  0  0  0  0
   -0.2167  -12.1055   18.5568 C   0  0  0  0  0  0  0  0  0  0  0  0
   -2.0661  -10.6994   18.1916 C   0  0  0  0  0  0  0  0  0  0  0  0
    5.2703   -7.5691   27.1123 C   0  0  0  0  0  0  0  0  0  0  0  0
    1.6204   -9.9887   17.2935 C   0  0  0  0  0  0  0  0  0  0  0  0
    1.8931   -7.9265   16.2047 C   0  0  0  0  0  0  0  0  0  0  0  0
    2.4396   -9.0801   16.7132 C   0  0  0  0  0  0  0  0  0  0  0  0
   -0.2575   -8.6234   16.8582 C   0  0  0  0  0  0  0  0  0  0  0  0
    4.0614   -7.0367   27.0106 N   0  0  0  0  0  0  0  0  0  0  0  0
   -2.9133  -11.6279   18.7578 C   0  0  0  0  0  0  0  0  0  0  0  0
    4.5688  -10.1291   29.5758 C   0  0  0  0  0  0  0  0  0  0  0  0
    2.1008   -9.0410   29.1852 N   0  0  0  0  0  0  0  0  0  0  0  0
    3.4829  -10.5697   30.2091 N   0  0  0  0  0  0  0  0  0  0  0  0
   -0.3363   -6.1172   27.5628 C   0  0  0  0  0  0  0  0  0  0  0  0
    3.0331   -7.4400   27.6362 C   0  0  0  0  0  0  0  0  0  0  0  0
    5.4553   -8.5933   27.9644 C   0  0  0  0  0  0  0  0  0  0  0  0
   -2.3870  -12.8440   19.2512 C   0  0  0  0  0  0  0  0  0  0  0  0
    0.5331   -7.6964   16.2751 C   0  0  0  0  0  0  0  0  0  0  0  0
   -0.6740  -10.8737   18.0482 C   0  0  0  0  0  0  0  0  0  0  0  0
    5.6751  -10.5870   29.7637 O   0  0  0  0  0  0  0  0  0  0  0  0
    1.7612   -5.6483   26.7172 C   0  0  0  0  0  0  0  0  0  0  0  0
    0.2221   -9.8326   17.4055 C   0  0  0  0  0  0  0  0  0  0  0  0
    4.3850   -9.0730   28.6745 C   0  0  0  0  0  0  0  0  0  0  0  0
  1  7  4  0
  1 22  4  0
  2 17  4  0
  2 20  4  0
  2 28  4  0
  3  6  1  0
  3 19  1  0
  4 19  1  0
  4 26  1  0
  5 17  4  0
  5 18  4  0
  6 20  1  0
  6 26  1  0
  7 24  4  0
  8 15  4  0
  8 24  4  0
  9 14  4  0
  9 21  4  0
 10 12  4  0
 10 27  4  0
 11 12  4  0
 11 23  4  0
 13 23  4  0
 13 27  4  0
 14 20  4  0
 15 22  4  0
 16 18  4  0
 16 25  2  0
 16 28  4  0
 21 28  4  0
 24 27  1  0
M  END
$$$$

 Created by Python create_sdf_string function

 28 31  0  0  0  0  0  0  0  0999 V2000
   -1.0054  -13.0622   19.1198 C   0  0  0  0  0  0  0  0  0  0  0  0
    3.1478   -8.5360   28.5161 C   0  0  0  0  0  0  0  0  0  0  0  0
    0.5798   -7.1906   27.9330 C   0  0  0  0  0  0  0  0  0  0  0  0
    0.3978   -5.1561   26.6955 C   0  0  0  0  0  0  0  0  0  0  0  0
    2.3063  -10.0533   30.0125 C   0  0  0  0  0  0  0  0  0  0  0  0
    1.8591   -6.8254   27.4685 N   0  0  0  0  0  0  0  0  0  0  0  0
   -0.2167  -12.1055   18.5568 C   0  0  0  0  0  0  0  0  0  0  0  0
   -2.0661  -10.6994   18.1916 C   0  0  0  0  0  0  0  0  0  0  0  0
    5.2703   -7.5691   27.1123 C   0  0  0  0  0  0  0  0  0  0  0  0
    1.6204   -9.9887   17.2935 C   0  0  0  0  0  0  0  0  0  0  0  0
    1.8931   -7.9265   16.2047 C   0  0  0  0  0  0  0  0  0  0  0  0
    2.4396   -9.0801   16.7132 C   0  0  0  0  0  0  0  0  0  0  0  0
   -0.2575   -8.6234   16.8582 C   0  0  0  0  0  0  0  0  0  0  0  0
    4.0614   -7.0367   27.0106 N   0  0  0  0  0  0  0  0  0  0  0  0
   -2.9133  -11.6279   18.7578 C   0  0  0  0  0  0  0  0  0  0  0  0
    4.5688  -10.1291   29.5758 C   0  0  0  0  0  0  0  0  0  0  0  0
    2.1008   -9.0410   29.1852 N   0  0  0  0  0  0  0  0  0  0  0  0
    3.4829  -10.5697   30.2091 N   0  0  0  0  0  0  0  0  0  0  0  0
   -0.3363   -6.1172   27.5628 C   0  0  0  0  0  0  0  0  0  0  0  0
    3.0331   -7.4400   27.6362 C   0  0  0  0  0  0  0  0  0  0  0  0
    5.4553   -8.5933   27.9644 C   0  0  0  0  0  0  0  0  0  0  0  0
   -2.3870  -12.8440   19.2512 C   0  0  0  0  0  0  0  0  0  0  0  0
    0.5331   -7.6964   16.2751 C   0  0  0  0  0  0  0  0  0  0  0  0
   -0.6740  -10.8737   18.0482 C   0  0  0  0  0  0  0  0  0  0  0  0
    5.6751  -10.5870   29.7637 O   0  0  0  0  0  0  0  0  0  0  0  0
    1.7612   -5.6483   26.7172 C   0  0  0  0  0  0  0  0  0  0  0  0
    0.2221   -9.8326   17.4055 C   0  0  0  0  0  0  0  0  0  0  0  0
    4.3850   -9.0730   28.6745 C   0  0  0  0  0  0  0  0  0  0  0  0
  1  7  4  0
  1 22  4  0
  2 17  4  0
  2 20  4  0
  2 28  4  0
  3  6  1  0
  3 19  1  0
  4 19  1  0
  4 26  1  0
  5 17  4  0
  5 18  4  0
  6 20  1  0
  6 26  1  0
  7 24  4  0
  8 15  4  0
  8 24  4  0
  9 14  4  0
  9 21  4  0
 10 12  4  0
 10 27  4  0
 11 12  4  0
 11 23  4  0
 13 23  4  0
 13 27  4  0
 14 20  4  0
 15 22  4  0
 16 18  4  0
 16 25  2  0
 16 28  4  0
 21 28  4  0
 24 27  1  0
M  END
$$$$

 Created by Python create_sdf_string function

 28 31  0  0  0  0  0  0  0  0999 V2000
   -1.0054  -13.0622   19.1198 C   0  0  0  0  0  0  0  0  0  0  0  0
    3.1478   -8.5360   28.5161 C   0  0  0  0  0  0  0  0  0  0  0  0
    0.5798   -7.1906   27.9330 C   0  0  0  0  0  0  0  0  0  0  0  0
    0.3978   -5.1561   26.6955 C   0  0  0  0  0  0  0  0  0  0  0  0
    2.3063  -10.0533   30.0125 C   0  0  0  0  0  0  0  0  0  0  0  0
    1.8591   -6.8254   27.4685 N   0  0  0  0  0  0  0  0  0  0  0  0
   -0.2167  -12.1055   18.5568 C   0  0  0  0  0  0  0  0  0  0  0  0
   -2.0661  -10.6994   18.1916 C   0  0  0  0  0  0  0  0  0  0  0  0
    5.2703   -7.5691   27.1123 C   0  0  0  0  0  0  0  0  0  0  0  0
    1.6204   -9.9887   17.2935 C   0  0  0  0  0  0  0  0  0  0  0  0
    1.8931   -7.9265   16.2047 C   0  0  0  0  0  0  0  0  0  0  0  0
    2.4396   -9.0801   16.7132 C   0  0  0  0  0  0  0  0  0  0  0  0
   -0.2575   -8.6234   16.8582 C   0  0  0  0  0  0  0  0  0  0  0  0
    4.0614   -7.0367   27.0106 N   0  0  0  0  0  0  0  0  0  0  0  0
   -2.9133  -11.6279   18.7578 C   0  0  0  0  0  0  0  0  0  0  0  0
    4.5688  -10.1291   29.5758 C   0  0  0  0  0  0  0  0  0  0  0  0
    2.1008   -9.0410   29.1852 N   0  0  0  0  0  0  0  0  0  0  0  0
    3.4829  -10.5697   30.2091 N   0  0  0  0  0  0  0  0  0  0  0  0
   -0.3363   -6.1172   27.5628 C   0  0  0  0  0  0  0  0  0  0  0  0
    3.0331   -7.4400   27.6362 C   0  0  0  0  0  0  0  0  0  0  0  0
    5.4553   -8.5933   27.9644 C   0  0  0  0  0  0  0  0  0  0  0  0
   -2.3870  -12.8440   19.2512 C   0  0  0  0  0  0  0  0  0  0  0  0
    0.5331   -7.6964   16.2751 C   0  0  0  0  0  0  0  0  0  0  0  0
   -0.6740  -10.8737   18.0482 C   0  0  0  0  0  0  0  0  0  0  0  0
    5.6751  -10.5870   29.7637 O   0  0  0  0  0  0  0  0  0  0  0  0
    1.7612   -5.6483   26.7172 C   0  0  0  0  0  0  0  0  0  0  0  0
    0.2221   -9.8326   17.4055 C   0  0  0  0  0  0  0  0  0  0  0  0
    4.3850   -9.0730   28.6745 C   0  0  0  0  0  0  0  0  0  0  0  0
  1  7  4  0
  1 22  4  0
  2 17  4  0
  2 20  4  0
  2 28  4  0
  3  6  1  0
  3 19  1  0
  4 19  1  0
  4 26  1  0
  5 17  4  0
  5 18  4  0
  6 20  1  0
  6 26  1  0
  7 24  4  0
  8 15  4  0
  8 24  4  0
  9 14  4  0
  9 21  4  0
 10 12  4  0
 10 27  4  0
 11 12  4  0
 11 23  4  0
 13 23  4  0
 13 27  4  0
 14 20  4  0
 15 22  4  0
 16 18  4  0
 16 25  2  0
 16 28  4  0
 21 28  4  0
 24 27  1  0
M  END
$$$$

 Created by Python create_sdf_string function

 28 31  0  0  0  0  0  0  0  0999 V2000
   -1.0054  -13.0622   19.1198 C   0  0  0  0  0  0  0  0  0  0  0  0
    3.1478   -8.5360   28.5161 C   0  0  0  0  0  0  0  0  0  0  0  0
    0.5798   -7.1906   27.9330 C   0  0  0  0  0  0  0  0  0  0  0  0
    0.3978   -5.1561   26.6955 C   0  0  0  0  0  0  0  0  0  0  0  0
    2.3063  -10.0533   30.0125 C   0  0  0  0  0  0  0  0  0  0  0  0
    1.8591   -6.8254   27.4685 N   0  0  0  0  0  0  0  0  0  0  0  0
   -0.2167  -12.1055   18.5568 C   0  0  0  0  0  0  0  0  0  0  0  0
   -2.0661  -10.6994   18.1916 C   0  0  0  0  0  0  0  0  0  0  0  0
    5.2703   -7.5691   27.1123 C   0  0  0  0  0  0  0  0  0  0  0  0
    1.6204   -9.9887   17.2935 C   0  0  0  0  0  0  0  0  0  0  0  0
    1.8931   -7.9265   16.2047 C   0  0  0  0  0  0  0  0  0  0  0  0
    2.4396   -9.0801   16.7132 C   0  0  0  0  0  0  0  0  0  0  0  0
   -0.2575   -8.6234   16.8582 C   0  0  0  0  0  0  0  0  0  0  0  0
    4.0614   -7.0367   27.0106 N   0  0  0  0  0  0  0  0  0  0  0  0
   -2.9133  -11.6279   18.7578 C   0  0  0  0  0  0  0  0  0  0  0  0
    4.5688  -10.1291   29.5758 C   0  0  0  0  0  0  0  0  0  0  0  0
    2.1008   -9.0410   29.1852 N   0  0  0  0  0  0  0  0  0  0  0  0
    3.4829  -10.5697   30.2091 N   0  0  0  0  0  0  0  0  0  0  0  0
   -0.3363   -6.1172   27.5628 C   0  0  0  0  0  0  0  0  0  0  0  0
    3.0331   -7.4400   27.6362 C   0  0  0  0  0  0  0  0  0  0  0  0
    5.4553   -8.5933   27.9644 C   0  0  0  0  0  0  0  0  0  0  0  0
   -2.3870  -12.8440   19.2512 C   0  0  0  0  0  0  0  0  0  0  0  0
    0.5331   -7.6964   16.2751 C   0  0  0  0  0  0  0  0  0  0  0  0
   -0.6740  -10.8737   18.0482 C   0  0  0  0  0  0  0  0  0  0  0  0
    5.6751  -10.5870   29.7637 O   0  0  0  0  0  0  0  0  0  0  0  0
    1.7612   -5.6483   26.7172 C   0  0  0  0  0  0  0  0  0  0  0  0
    0.2221   -9.8326   17.4055 C   0  0  0  0  0  0  0  0  0  0  0  0
    4.3850   -9.0730   28.6745 C   0  0  0  0  0  0  0  0  0  0  0  0
  1  7  4  0
  1 22  4  0
  2 17  4  0
  2 20  4  0
  2 28  4  0
  3  6  1  0
  3 19  1  0
  4 19  1  0
  4 26  1  0
  5 17  4  0
  5 18  4  0
  6 20  1  0
  6 26  1  0
  7 24  4  0
  8 15  4  0
  8 24  4  0
  9 14  4  0
  9 21  4  0
 10 12  4  0
 10 27  4  0
 11 12  4  0
 11 23  4  0
 13 23  4  0
 13 27  4  0
 14 20  4  0
 15 22  4  0
 16 18  4  0
 16 25  2  0
 16 28  4  0
 21 28  4  0
 24 27  1  0
M  END
$$$$

 Created by Python create_sdf_string function

 28 31  0  0  0  0  0  0  0  0999 V2000
   -1.0054  -13.0622   19.1198 C   0  0  0  0  0  0  0  0  0  0  0  0
    3.1478   -8.5360   28.5161 C   0  0  0  0  0  0  0  0  0  0  0  0
    0.5798   -7.1906   27.9330 C   0  0  0  0  0  0  0  0  0  0  0  0
    0.3978   -5.1561   26.6955 C   0  0  0  0  0  0  0  0  0  0  0  0
    2.3063  -10.0533   30.0125 C   0  0  0  0  0  0  0  0  0  0  0  0
    1.8591   -6.8254   27.4685 N   0  0  0  0  0  0  0  0  0  0  0  0
   -0.2167  -12.1055   18.5568 C   0  0  0  0  0  0  0  0  0  0  0  0
   -2.0661  -10.6994   18.1916 C   0  0  0  0  0  0  0  0  0  0  0  0
    5.2703   -7.5691   27.1123 C   0  0  0  0  0  0  0  0  0  0  0  0
    1.6204   -9.9887   17.2935 C   0  0  0  0  0  0  0  0  0  0  0  0
    1.8931   -7.9265   16.2047 C   0  0  0  0  0  0  0  0  0  0  0  0
    2.4396   -9.0801   16.7132 C   0  0  0  0  0  0  0  0  0  0  0  0
   -0.2575   -8.6234   16.8582 C   0  0  0  0  0  0  0  0  0  0  0  0
    4.0614   -7.0367   27.0106 N   0  0  0  0  0  0  0  0  0  0  0  0
   -2.9133  -11.6279   18.7578 C   0  0  0  0  0  0  0  0  0  0  0  0
    4.5688  -10.1291   29.5758 C   0  0  0  0  0  0  0  0  0  0  0  0
    2.1008   -9.0410   29.1852 N   0  0  0  0  0  0  0  0  0  0  0  0
    3.4829  -10.5697   30.2091 N   0  0  0  0  0  0  0  0  0  0  0  0
   -0.3363   -6.1172   27.5628 C   0  0  0  0  0  0  0  0  0  0  0  0
    3.0331   -7.4400   27.6362 C   0  0  0  0  0  0  0  0  0  0  0  0
    5.4553   -8.5933   27.9644 C   0  0  0  0  0  0  0  0  0  0  0  0
   -2.3870  -12.8440   19.2512 C   0  0  0  0  0  0  0  0  0  0  0  0
    0.5331   -7.6964   16.2751 C   0  0  0  0  0  0  0  0  0  0  0  0
   -0.6740  -10.8737   18.0482 C   0  0  0  0  0  0  0  0  0  0  0  0
    5.6751  -10.5870   29.7637 O   0  0  0  0  0  0  0  0  0  0  0  0
    1.7612   -5.6483   26.7172 C   0  0  0  0  0  0  0  0  0  0  0  0
    0.2221   -9.8326   17.4055 C   0  0  0  0  0  0  0  0  0  0  0  0
    4.3850   -9.0730   28.6745 C   0  0  0  0  0  0  0  0  0  0  0  0
  1  7  4  0
  1 22  4  0
  2 17  4  0
  2 20  4  0
  2 28  4  0
  3  6  1  0
  3 19  1  0
  4 19  1  0
  4 26  1  0
  5 17  4  0
  5 18  4  0
  6 20  1  0
  6 26  1  0
  7 24  4  0
  8 15  4  0
  8 24  4  0
  9 14  4  0
  9 21  4  0
 10 12  4  0
 10 27  4  0
 11 12  4  0
 11 23  4  0
 13 23  4  0
 13 27  4  0
 14 20  4  0
 15 22  4  0
 16 18  4  0
 16 25  2  0
 16 28  4  0
 21 28  4  0
 24 27  1  0
M  END
$$$$

 Created by Python create_sdf_string function

 28 31  0  0  0  0  0  0  0  0999 V2000
   -1.0054  -13.0622   19.1198 C   0  0  0  0  0  0  0  0  0  0  0  0
    3.1478   -8.5360   28.5161 C   0  0  0  0  0  0  0  0  0  0  0  0
    0.5798   -7.1906   27.9330 C   0  0  0  0  0  0  0  0  0  0  0  0
    0.3978   -5.1561   26.6955 C   0  0  0  0  0  0  0  0  0  0  0  0
    2.3063  -10.0533   30.0125 C   0  0  0  0  0  0  0  0  0  0  0  0
    1.8591   -6.8254   27.4685 N   0  0  0  0  0  0  0  0  0  0  0  0
   -0.2167  -12.1055   18.5568 C   0  0  0  0  0  0  0  0  0  0  0  0
   -2.0661  -10.6994   18.1916 C   0  0  0  0  0  0  0  0  0  0  0  0
    5.2703   -7.5691   27.1123 C   0  0  0  0  0  0  0  0  0  0  0  0
    1.6204   -9.9887   17.2935 C   0  0  0  0  0  0  0  0  0  0  0  0
    1.8931   -7.9265   16.2047 C   0  0  0  0  0  0  0  0  0  0  0  0
    2.4396   -9.0801   16.7132 C   0  0  0  0  0  0  0  0  0  0  0  0
   -0.2575   -8.6234   16.8582 C   0  0  0  0  0  0  0  0  0  0  0  0
    4.0614   -7.0367   27.0106 N   0  0  0  0  0  0  0  0  0  0  0  0
   -2.9133  -11.6279   18.7578 C   0  0  0  0  0  0  0  0  0  0  0  0
    4.5688  -10.1291   29.5758 C   0  0  0  0  0  0  0  0  0  0  0  0
    2.1008   -9.0410   29.1852 N   0  0  0  0  0  0  0  0  0  0  0  0
    3.4829  -10.5697   30.2091 N   0  0  0  0  0  0  0  0  0  0  0  0
   -0.3363   -6.1172   27.5628 C   0  0  0  0  0  0  0  0  0  0  0  0
    3.0331   -7.4400   27.6362 C   0  0  0  0  0  0  0  0  0  0  0  0
    5.4553   -8.5933   27.9644 C   0  0  0  0  0  0  0  0  0  0  0  0
   -2.3870  -12.8440   19.2512 C   0  0  0  0  0  0  0  0  0  0  0  0
    0.5331   -7.6964   16.2751 C   0  0  0  0  0  0  0  0  0  0  0  0
   -0.6740  -10.8737   18.0482 C   0  0  0  0  0  0  0  0  0  0  0  0
    5.6751  -10.5870   29.7637 O   0  0  0  0  0  0  0  0  0  0  0  0
    1.7612   -5.6483   26.7172 C   0  0  0  0  0  0  0  0  0  0  0  0
    0.2221   -9.8326   17.4055 C   0  0  0  0  0  0  0  0  0  0  0  0
    4.3850   -9.0730   28.6745 C   0  0  0  0  0  0  0  0  0  0  0  0
  1  7  4  0
  1 22  4  0
  2 17  4  0
  2 20  4  0
  2 28  4  0
  3  6  1  0
  3 19  1  0
  4 19  1  0
  4 26  1  0
  5 17  4  0
  5 18  4  0
  6 20  1  0
  6 26  1  0
  7 24  4  0
  8 15  4  0
  8 24  4  0
  9 14  4  0
  9 21  4  0
 10 12  4  0
 10 27  4  0
 11 12  4  0
 11 23  4  0
 13 23  4  0
 13 27  4  0
 14 20  4  0
 15 22  4  0
 16 18  4  0
 16 25  2  0
 16 28  4  0
 21 28  4  0
 24 27  1  0
M  END
$$$$

 Created by Python create_sdf_string function

 28 31  0  0  0  0  0  0  0  0999 V2000
   -1.0054  -13.0622   19.1198 C   0  0  0  0  0  0  0  0  0  0  0  0
    3.1478   -8.5360   28.5161 C   0  0  0  0  0  0  0  0  0  0  0  0
    0.5798   -7.1906   27.9330 C   0  0  0  0  0  0  0  0  0  0  0  0
    0.3978   -5.1561   26.6955 C   0  0  0  0  0  0  0  0  0  0  0  0
    2.3063  -10.0533   30.0125 C   0  0  0  0  0  0  0  0  0  0  0  0
    1.8591   -6.8254   27.4685 N   0  0  0  0  0  0  0  0  0  0  0  0
   -0.2167  -12.1055   18.5568 C   0  0  0  0  0  0  0  0  0  0  0  0
   -2.0661  -10.6994   18.1916 C   0  0  0  0  0  0  0  0  0  0  0  0
    5.2703   -7.5691   27.1123 C   0  0  0  0  0  0  0  0  0  0  0  0
    1.6204   -9.9887   17.2935 C   0  0  0  0  0  0  0  0  0  0  0  0
    1.8931   -7.9265   16.2047 C   0  0  0  0  0  0  0  0  0  0  0  0
    2.4396   -9.0801   16.7132 C   0  0  0  0  0  0  0  0  0  0  0  0
   -0.2575   -8.6234   16.8582 C   0  0  0  0  0  0  0  0  0  0  0  0
    4.0614   -7.0367   27.0106 N   0  0  0  0  0  0  0  0  0  0  0  0
   -2.9133  -11.6279   18.7578 C   0  0  0  0  0  0  0  0  0  0  0  0
    4.5688  -10.1291   29.5758 C   0  0  0  0  0  0  0  0  0  0  0  0
    2.1008   -9.0410   29.1852 N   0  0  0  0  0  0  0  0  0  0  0  0
    3.4829  -10.5697   30.2091 N   0  0  0  0  0  0  0  0  0  0  0  0
   -0.3363   -6.1172   27.5628 C   0  0  0  0  0  0  0  0  0  0  0  0
    3.0331   -7.4400   27.6362 C   0  0  0  0  0  0  0  0  0  0  0  0
    5.4553   -8.5933   27.9644 C   0  0  0  0  0  0  0  0  0  0  0  0
   -2.3870  -12.8440   19.2512 C   0  0  0  0  0  0  0  0  0  0  0  0
    0.5331   -7.6964   16.2751 C   0  0  0  0  0  0  0  0  0  0  0  0
   -0.6740  -10.8737   18.0482 C   0  0  0  0  0  0  0  0  0  0  0  0
    5.6751  -10.5870   29.7637 O   0  0  0  0  0  0  0  0  0  0  0  0
    1.7612   -5.6483   26.7172 C   0  0  0  0  0  0  0  0  0  0  0  0
    0.2221   -9.8326   17.4055 C   0  0  0  0  0  0  0  0  0  0  0  0
    4.3850   -9.0730   28.6745 C   0  0  0  0  0  0  0  0  0  0  0  0
  1  7  4  0
  1 22  4  0
  2 17  4  0
  2 20  4  0
  2 28  4  0
  3  6  1  0
  3 19  1  0
  4 19  1  0
  4 26  1  0
  5 17  4  0
  5 18  4  0
  6 20  1  0
  6 26  1  0
  7 24  4  0
  8 15  4  0
  8 24  4  0
  9 14  4  0
  9 21  4  0
 10 12  4  0
 10 27  4  0
 11 12  4  0
 11 23  4  0
 13 23  4  0
 13 27  4  0
 14 20  4  0
 15 22  4  0
 16 18  4  0
 16 25  2  0
 16 28  4  0
 21 28  4  0
 24 27  1  0
M  END
$$$$

 Created by Python create_sdf_string function

 28 31  0  0  0  0  0  0  0  0999 V2000
   -1.0054  -13.0622   19.1198 C   0  0  0  0  0  0  0  0  0  0  0  0
    3.1478   -8.5360   28.5161 C   0  0  0  0  0  0  0  0  0  0  0  0
    0.5798   -7.1906   27.9330 C   0  0  0  0  0  0  0  0  0  0  0  0
    0.3978   -5.1561   26.6955 C   0  0  0  0  0  0  0  0  0  0  0  0
    2.3063  -10.0533   30.0125 C   0  0  0  0  0  0  0  0  0  0  0  0
    1.8591   -6.8254   27.4685 N   0  0  0  0  0  0  0  0  0  0  0  0
   -0.2167  -12.1055   18.5568 C   0  0  0  0  0  0  0  0  0  0  0  0
   -2.0661  -10.6994   18.1916 C   0  0  0  0  0  0  0  0  0  0  0  0
    5.2703   -7.5691   27.1123 C   0  0  0  0  0  0  0  0  0  0  0  0
    1.6204   -9.9887   17.2935 C   0  0  0  0  0  0  0  0  0  0  0  0
    1.8931   -7.9265   16.2047 C   0  0  0  0  0  0  0  0  0  0  0  0
    2.4396   -9.0801   16.7132 C   0  0  0  0  0  0  0  0  0  0  0  0
   -0.2575   -8.6234   16.8582 C   0  0  0  0  0  0  0  0  0  0  0  0
    4.0614   -7.0367   27.0106 N   0  0  0  0  0  0  0  0  0  0  0  0
   -2.9133  -11.6279   18.7578 C   0  0  0  0  0  0  0  0  0  0  0  0
    4.5688  -10.1291   29.5758 C   0  0  0  0  0  0  0  0  0  0  0  0
    2.1008   -9.0410   29.1852 N   0  0  0  0  0  0  0  0  0  0  0  0
    3.4829  -10.5697   30.2091 N   0  0  0  0  0  0  0  0  0  0  0  0
   -0.3363   -6.1172   27.5628 C   0  0  0  0  0  0  0  0  0  0  0  0
    3.0331   -7.4400   27.6362 C   0  0  0  0  0  0  0  0  0  0  0  0
    5.4553   -8.5933   27.9644 C   0  0  0  0  0  0  0  0  0  0  0  0
   -2.3870  -12.8440   19.2512 C   0  0  0  0  0  0  0  0  0  0  0  0
    0.5331   -7.6964   16.2751 C   0  0  0  0  0  0  0  0  0  0  0  0
   -0.6740  -10.8737   18.0482 C   0  0  0  0  0  0  0  0  0  0  0  0
    5.6751  -10.5870   29.7637 O   0  0  0  0  0  0  0  0  0  0  0  0
    1.7612   -5.6483   26.7172 C   0  0  0  0  0  0  0  0  0  0  0  0
    0.2221   -9.8326   17.4055 C   0  0  0  0  0  0  0  0  0  0  0  0
    4.3850   -9.0730   28.6745 C   0  0  0  0  0  0  0  0  0  0  0  0
  1  7  4  0
  1 22  4  0
  2 17  4  0
  2 20  4  0
  2 28  4  0
  3  6  1  0
  3 19  1  0
  4 19  1  0
  4 26  1  0
  5 17  4  0
  5 18  4  0
  6 20  1  0
  6 26  1  0
  7 24  4  0
  8 15  4  0
  8 24  4  0
  9 14  4  0
  9 21  4  0
 10 12  4  0
 10 27  4  0
 11 12  4  0
 11 23  4  0
 13 23  4  0
 13 27  4  0
 14 20  4  0
 15 22  4  0
 16 18  4  0
 16 25  2  0
 16 28  4  0
 21 28  4  0
 24 27  1  0
M  END
$$$$

 Created by Python create_sdf_string function

 28 31  0  0  0  0  0  0  0  0999 V2000
   -1.0054  -13.0622   19.1198 C   0  0  0  0  0  0  0  0  0  0  0  0
    3.1478   -8.5360   28.5161 C   0  0  0  0  0  0  0  0  0  0  0  0
    0.5798   -7.1906   27.9330 C   0  0  0  0  0  0  0  0  0  0  0  0
    0.3978   -5.1561   26.6955 C   0  0  0  0  0  0  0  0  0  0  0  0
    2.3063  -10.0533   30.0125 C   0  0  0  0  0  0  0  0  0  0  0  0
    1.8591   -6.8254   27.4685 N   0  0  0  0  0  0  0  0  0  0  0  0
   -0.2167  -12.1055   18.5568 C   0  0  0  0  0  0  0  0  0  0  0  0
   -2.0661  -10.6994   18.1916 C   0  0  0  0  0  0  0  0  0  0  0  0
    5.2703   -7.5691   27.1123 C   0  0  0  0  0  0  0  0  0  0  0  0
    1.6204   -9.9887   17.2935 C   0  0  0  0  0  0  0  0  0  0  0  0
    1.8931   -7.9265   16.2047 C   0  0  0  0  0  0  0  0  0  0  0  0
    2.4396   -9.0801   16.7132 C   0  0  0  0  0  0  0  0  0  0  0  0
   -0.2575   -8.6234   16.8582 C   0  0  0  0  0  0  0  0  0  0  0  0
    4.0614   -7.0367   27.0106 N   0  0  0  0  0  0  0  0  0  0  0  0
   -2.9133  -11.6279   18.7578 C   0  0  0  0  0  0  0  0  0  0  0  0
    4.5688  -10.1291   29.5758 C   0  0  0  0  0  0  0  0  0  0  0  0
    2.1008   -9.0410   29.1852 N   0  0  0  0  0  0  0  0  0  0  0  0
    3.4829  -10.5697   30.2091 N   0  0  0  0  0  0  0  0  0  0  0  0
   -0.3363   -6.1172   27.5628 C   0  0  0  0  0  0  0  0  0  0  0  0
    3.0331   -7.4400   27.6362 C   0  0  0  0  0  0  0  0  0  0  0  0
    5.4553   -8.5933   27.9644 C   0  0  0  0  0  0  0  0  0  0  0  0
   -2.3870  -12.8440   19.2512 C   0  0  0  0  0  0  0  0  0  0  0  0
    0.5331   -7.6964   16.2751 C   0  0  0  0  0  0  0  0  0  0  0  0
   -0.6740  -10.8737   18.0482 C   0  0  0  0  0  0  0  0  0  0  0  0
    5.6751  -10.5870   29.7637 O   0  0  0  0  0  0  0  0  0  0  0  0
    1.7612   -5.6483   26.7172 C   0  0  0  0  0  0  0  0  0  0  0  0
    0.2221   -9.8326   17.4055 C   0  0  0  0  0  0  0  0  0  0  0  0
    4.3850   -9.0730   28.6745 C   0  0  0  0  0  0  0  0  0  0  0  0
  1  7  4  0
  1 22  4  0
  2 17  4  0
  2 20  4  0
  2 28  4  0
  3  6  1  0
  3 19  1  0
  4 19  1  0
  4 26  1  0
  5 17  4  0
  5 18  4  0
  6 20  1  0
  6 26  1  0
  7 24  4  0
  8 15  4  0
  8 24  4  0
  9 14  4  0
  9 21  4  0
 10 12  4  0
 10 27  4  0
 11 12  4  0
 11 23  4  0
 13 23  4  0
 13 27  4  0
 14 20  4  0
 15 22  4  0
 16 18  4  0
 16 25  2  0
 16 28  4  0
 21 28  4  0
 24 27  1  0
M  END
$$$$

 Created by Python create_sdf_string function

 28 31  0  0  0  0  0  0  0  0999 V2000
   -1.0054  -13.0622   19.1198 C   0  0  0  0  0  0  0  0  0  0  0  0
    3.1478   -8.5360   28.5161 C   0  0  0  0  0  0  0  0  0  0  0  0
    0.5798   -7.1906   27.9330 C   0  0  0  0  0  0  0  0  0  0  0  0
    0.3978   -5.1561   26.6955 C   0  0  0  0  0  0  0  0  0  0  0  0
    2.3063  -10.0533   30.0125 C   0  0  0  0  0  0  0  0  0  0  0  0
    1.8591   -6.8254   27.4685 N   0  0  0  0  0  0  0  0  0  0  0  0
   -0.2167  -12.1055   18.5568 C   0  0  0  0  0  0  0  0  0  0  0  0
   -2.0661  -10.6994   18.1916 C   0  0  0  0  0  0  0  0  0  0  0  0
    5.2703   -7.5691   27.1123 C   0  0  0  0  0  0  0  0  0  0  0  0
    1.6204   -9.9887   17.2935 C   0  0  0  0  0  0  0  0  0  0  0  0
    1.8931   -7.9265   16.2047 C   0  0  0  0  0  0  0  0  0  0  0  0
    2.4396   -9.0801   16.7132 C   0  0  0  0  0  0  0  0  0  0  0  0
   -0.2575   -8.6234   16.8582 C   0  0  0  0  0  0  0  0  0  0  0  0
    4.0614   -7.0367   27.0106 N   0  0  0  0  0  0  0  0  0  0  0  0
   -2.9133  -11.6279   18.7578 C   0  0  0  0  0  0  0  0  0  0  0  0
    4.5688  -10.1291   29.5758 C   0  0  0  0  0  0  0  0  0  0  0  0
    2.1008   -9.0410   29.1852 N   0  0  0  0  0  0  0  0  0  0  0  0
    3.4829  -10.5697   30.2091 N   0  0  0  0  0  0  0  0  0  0  0  0
   -0.3363   -6.1172   27.5628 C   0  0  0  0  0  0  0  0  0  0  0  0
    3.0331   -7.4400   27.6362 C   0  0  0  0  0  0  0  0  0  0  0  0
    5.4553   -8.5933   27.9644 C   0  0  0  0  0  0  0  0  0  0  0  0
   -2.3870  -12.8440   19.2512 C   0  0  0  0  0  0  0  0  0  0  0  0
    0.5331   -7.6964   16.2751 C   0  0  0  0  0  0  0  0  0  0  0  0
   -0.6740  -10.8737   18.0482 C   0  0  0  0  0  0  0  0  0  0  0  0
    5.6751  -10.5870   29.7637 O   0  0  0  0  0  0  0  0  0  0  0  0
    1.7612   -5.6483   26.7172 C   0  0  0  0  0  0  0  0  0  0  0  0
    0.2221   -9.8326   17.4055 C   0  0  0  0  0  0  0  0  0  0  0  0
    4.3850   -9.0730   28.6745 C   0  0  0  0  0  0  0  0  0  0  0  0
  1  7  4  0
  1 22  4  0
  2 17  4  0
  2 20  4  0
  2 28  4  0
  3  6  1  0
  3 19  1  0
  4 19  1  0
  4 26  1  0
  5 17  4  0
  5 18  4  0
  6 20  1  0
  6 26  1  0
  7 24  4  0
  8 15  4  0
  8 24  4  0
  9 14  4  0
  9 21  4  0
 10 12  4  0
 10 27  4  0
 11 12  4  0
 11 23  4  0
 13 23  4  0
 13 27  4  0
 14 20  4  0
 15 22  4  0
 16 18  4  0
 16 25  2  0
 16 28  4  0
 21 28  4  0
 24 27  1  0
M  END
$$$$

 Created by Python create_sdf_string function

 28 31  0  0  0  0  0  0  0  0999 V2000
   -1.0054  -13.0622   19.1198 C   0  0  0  0  0  0  0  0  0  0  0  0
    3.1478   -8.5360   28.5161 C   0  0  0  0  0  0  0  0  0  0  0  0
    0.5798   -7.1906   27.9330 C   0  0  0  0  0  0  0  0  0  0  0  0
    0.3978   -5.1561   26.6955 C   0  0  0  0  0  0  0  0  0  0  0  0
    2.3063  -10.0533   30.0125 C   0  0  0  0  0  0  0  0  0  0  0  0
    1.8591   -6.8254   27.4685 N   0  0  0  0  0  0  0  0  0  0  0  0
   -0.2167  -12.1055   18.5568 C   0  0  0  0  0  0  0  0  0  0  0  0
   -2.0661  -10.6994   18.1916 C   0  0  0  0  0  0  0  0  0  0  0  0
    5.2703   -7.5691   27.1123 C   0  0  0  0  0  0  0  0  0  0  0  0
    1.6204   -9.9887   17.2935 C   0  0  0  0  0  0  0  0  0  0  0  0
    1.8931   -7.9265   16.2047 C   0  0  0  0  0  0  0  0  0  0  0  0
    2.4396   -9.0801   16.7132 C   0  0  0  0  0  0  0  0  0  0  0  0
   -0.2575   -8.6234   16.8582 C   0  0  0  0  0  0  0  0  0  0  0  0
    4.0614   -7.0367   27.0106 N   0  0  0  0  0  0  0  0  0  0  0  0
   -2.9133  -11.6279   18.7578 C   0  0  0  0  0  0  0  0  0  0  0  0
    4.5688  -10.1291   29.5758 C   0  0  0  0  0  0  0  0  0  0  0  0
    2.1008   -9.0410   29.1852 N   0  0  0  0  0  0  0  0  0  0  0  0
    3.4829  -10.5697   30.2091 N   0  0  0  0  0  0  0  0  0  0  0  0
   -0.3363   -6.1172   27.5628 C   0  0  0  0  0  0  0  0  0  0  0  0
    3.0331   -7.4400   27.6362 C   0  0  0  0  0  0  0  0  0  0  0  0
    5.4553   -8.5933   27.9644 C   0  0  0  0  0  0  0  0  0  0  0  0
   -2.3870  -12.8440   19.2512 C   0  0  0  0  0  0  0  0  0  0  0  0
    0.5331   -7.6964   16.2751 C   0  0  0  0  0  0  0  0  0  0  0  0
   -0.6740  -10.8737   18.0482 C   0  0  0  0  0  0  0  0  0  0  0  0
    5.6751  -10.5870   29.7637 O   0  0  0  0  0  0  0  0  0  0  0  0
    1.7612   -5.6483   26.7172 C   0  0  0  0  0  0  0  0  0  0  0  0
    0.2221   -9.8326   17.4055 C   0  0  0  0  0  0  0  0  0  0  0  0
    4.3850   -9.0730   28.6745 C   0  0  0  0  0  0  0  0  0  0  0  0
  1  7  4  0
  1 22  4  0
  2 17  4  0
  2 20  4  0
  2 28  4  0
  3  6  1  0
  3 19  1  0
  4 19  1  0
  4 26  1  0
  5 17  4  0
  5 18  4  0
  6 20  1  0
  6 26  1  0
  7 24  4  0
  8 15  4  0
  8 24  4  0
  9 14  4  0
  9 21  4  0
 10 12  4  0
 10 27  4  0
 11 12  4  0
 11 23  4  0
 13 23  4  0
 13 27  4  0
 14 20  4  0
 15 22  4  0
 16 18  4  0
 16 25  2  0
 16 28  4  0
 21 28  4  0
 24 27  1  0
M  END
$$$$

 Created by Python create_sdf_string function

 28 31  0  0  0  0  0  0  0  0999 V2000
   -1.0054  -13.0622   19.1198 C   0  0  0  0  0  0  0  0  0  0  0  0
    3.1478   -8.5360   28.5161 C   0  0  0  0  0  0  0  0  0  0  0  0
    0.5798   -7.1906   27.9330 C   0  0  0  0  0  0  0  0  0  0  0  0
    0.3978   -5.1561   26.6955 C   0  0  0  0  0  0  0  0  0  0  0  0
    2.3063  -10.0533   30.0125 C   0  0  0  0  0  0  0  0  0  0  0  0
    1.8591   -6.8254   27.4685 N   0  0  0  0  0  0  0  0  0  0  0  0
   -0.2167  -12.1055   18.5568 C   0  0  0  0  0  0  0  0  0  0  0  0
   -2.0661  -10.6994   18.1916 C   0  0  0  0  0  0  0  0  0  0  0  0
    5.2703   -7.5691   27.1123 C   0  0  0  0  0  0  0  0  0  0  0  0
    1.6204   -9.9887   17.2935 C   0  0  0  0  0  0  0  0  0  0  0  0
    1.8931   -7.9265   16.2047 C   0  0  0  0  0  0  0  0  0  0  0  0
    2.4396   -9.0801   16.7132 C   0  0  0  0  0  0  0  0  0  0  0  0
   -0.2575   -8.6234   16.8582 C   0  0  0  0  0  0  0  0  0  0  0  0
    4.0614   -7.0367   27.0106 N   0  0  0  0  0  0  0  0  0  0  0  0
   -2.9133  -11.6279   18.7578 C   0  0  0  0  0  0  0  0  0  0  0  0
    4.5688  -10.1291   29.5758 C   0  0  0  0  0  0  0  0  0  0  0  0
    2.1008   -9.0410   29.1852 N   0  0  0  0  0  0  0  0  0  0  0  0
    3.4829  -10.5697   30.2091 N   0  0  0  0  0  0  0  0  0  0  0  0
   -0.3363   -6.1172   27.5628 C   0  0  0  0  0  0  0  0  0  0  0  0
    3.0331   -7.4400   27.6362 C   0  0  0  0  0  0  0  0  0  0  0  0
    5.4553   -8.5933   27.9644 C   0  0  0  0  0  0  0  0  0  0  0  0
   -2.3870  -12.8440   19.2512 C   0  0  0  0  0  0  0  0  0  0  0  0
    0.5331   -7.6964   16.2751 C   0  0  0  0  0  0  0  0  0  0  0  0
   -0.6740  -10.8737   18.0482 C   0  0  0  0  0  0  0  0  0  0  0  0
    5.6751  -10.5870   29.7637 O   0  0  0  0  0  0  0  0  0  0  0  0
    1.7612   -5.6483   26.7172 C   0  0  0  0  0  0  0  0  0  0  0  0
    0.2221   -9.8326   17.4055 C   0  0  0  0  0  0  0  0  0  0  0  0
    4.3850   -9.0730   28.6745 C   0  0  0  0  0  0  0  0  0  0  0  0
  1  7  4  0
  1 22  4  0
  2 17  4  0
  2 20  4  0
  2 28  4  0
  3  6  1  0
  3 19  1  0
  4 19  1  0
  4 26  1  0
  5 17  4  0
  5 18  4  0
  6 20  1  0
  6 26  1  0
  7 24  4  0
  8 15  4  0
  8 24  4  0
  9 14  4  0
  9 21  4  0
 10 12  4  0
 10 27  4  0
 11 12  4  0
 11 23  4  0
 13 23  4  0
 13 27  4  0
 14 20  4  0
 15 22  4  0
 16 18  4  0
 16 25  2  0
 16 28  4  0
 21 28  4  0
 24 27  1  0
M  END
$$$$

 Created by Python create_sdf_string function

 28 31  0  0  0  0  0  0  0  0999 V2000
   -1.0054  -13.0622   19.1198 C   0  0  0  0  0  0  0  0  0  0  0  0
    3.1478   -8.5360   28.5161 C   0  0  0  0  0  0  0  0  0  0  0  0
    0.5798   -7.1906   27.9330 C   0  0  0  0  0  0  0  0  0  0  0  0
    0.3978   -5.1561   26.6955 C   0  0  0  0  0  0  0  0  0  0  0  0
    2.3063  -10.0533   30.0125 C   0  0  0  0  0  0  0  0  0  0  0  0
    1.8591   -6.8254   27.4685 N   0  0  0  0  0  0  0  0  0  0  0  0
   -0.2167  -12.1055   18.5568 C   0  0  0  0  0  0  0  0  0  0  0  0
   -2.0661  -10.6994   18.1916 C   0  0  0  0  0  0  0  0  0  0  0  0
    5.2703   -7.5691   27.1123 C   0  0  0  0  0  0  0  0  0  0  0  0
    1.6204   -9.9887   17.2935 C   0  0  0  0  0  0  0  0  0  0  0  0
    1.8931   -7.9265   16.2047 C   0  0  0  0  0  0  0  0  0  0  0  0
    2.4396   -9.0801   16.7132 C   0  0  0  0  0  0  0  0  0  0  0  0
   -0.2575   -8.6234   16.8582 C   0  0  0  0  0  0  0  0  0  0  0  0
    4.0614   -7.0367   27.0106 N   0  0  0  0  0  0  0  0  0  0  0  0
   -2.9133  -11.6279   18.7578 C   0  0  0  0  0  0  0  0  0  0  0  0
    4.5688  -10.1291   29.5758 C   0  0  0  0  0  0  0  0  0  0  0  0
    2.1008   -9.0410   29.1852 N   0  0  0  0  0  0  0  0  0  0  0  0
    3.4829  -10.5697   30.2091 N   0  0  0  0  0  0  0  0  0  0  0  0
   -0.3363   -6.1172   27.5628 C   0  0  0  0  0  0  0  0  0  0  0  0
    3.0331   -7.4400   27.6362 C   0  0  0  0  0  0  0  0  0  0  0  0
    5.4553   -8.5933   27.9644 C   0  0  0  0  0  0  0  0  0  0  0  0
   -2.3870  -12.8440   19.2512 C   0  0  0  0  0  0  0  0  0  0  0  0
    0.5331   -7.6964   16.2751 C   0  0  0  0  0  0  0  0  0  0  0  0
   -0.6740  -10.8737   18.0482 C   0  0  0  0  0  0  0  0  0  0  0  0
    5.6751  -10.5870   29.7637 O   0  0  0  0  0  0  0  0  0  0  0  0
    1.7612   -5.6483   26.7172 C   0  0  0  0  0  0  0  0  0  0  0  0
    0.2221   -9.8326   17.4055 C   0  0  0  0  0  0  0  0  0  0  0  0
    4.3850   -9.0730   28.6745 C   0  0  0  0  0  0  0  0  0  0  0  0
  1  7  4  0
  1 22  4  0
  2 17  4  0
  2 20  4  0
  2 28  4  0
  3  6  1  0
  3 19  1  0
  4 19  1  0
  4 26  1  0
  5 17  4  0
  5 18  4  0
  6 20  1  0
  6 26  1  0
  7 24  4  0
  8 15  4  0
  8 24  4  0
  9 14  4  0
  9 21  4  0
 10 12  4  0
 10 27  4  0
 11 12  4  0
 11 23  4  0
 13 23  4  0
 13 27  4  0
 14 20  4  0
 15 22  4  0
 16 18  4  0
 16 25  2  0
 16 28  4  0
 21 28  4  0
 24 27  1  0
M  END
$$$$

 Created by Python create_sdf_string function

 28 31  0  0  0  0  0  0  0  0999 V2000
   -1.0054  -13.0622   19.1198 C   0  0  0  0  0  0  0  0  0  0  0  0
    3.1478   -8.5360   28.5161 C   0  0  0  0  0  0  0  0  0  0  0  0
    0.5798   -7.1906   27.9330 C   0  0  0  0  0  0  0  0  0  0  0  0
    0.3978   -5.1561   26.6955 C   0  0  0  0  0  0  0  0  0  0  0  0
    2.3063  -10.0533   30.0125 C   0  0  0  0  0  0  0  0  0  0  0  0
    1.8591   -6.8254   27.4685 N   0  0  0  0  0  0  0  0  0  0  0  0
   -0.2167  -12.1055   18.5568 C   0  0  0  0  0  0  0  0  0  0  0  0
   -2.0661  -10.6994   18.1916 C   0  0  0  0  0  0  0  0  0  0  0  0
    5.2703   -7.5691   27.1123 C   0  0  0  0  0  0  0  0  0  0  0  0
    1.6204   -9.9887   17.2935 C   0  0  0  0  0  0  0  0  0  0  0  0
    1.8931   -7.9265   16.2047 C   0  0  0  0  0  0  0  0  0  0  0  0
    2.4396   -9.0801   16.7132 C   0  0  0  0  0  0  0  0  0  0  0  0
   -0.2575   -8.6234   16.8582 C   0  0  0  0  0  0  0  0  0  0  0  0
    4.0614   -7.0367   27.0106 N   0  0  0  0  0  0  0  0  0  0  0  0
   -2.9133  -11.6279   18.7578 C   0  0  0  0  0  0  0  0  0  0  0  0
    4.5688  -10.1291   29.5758 C   0  0  0  0  0  0  0  0  0  0  0  0
    2.1008   -9.0410   29.1852 N   0  0  0  0  0  0  0  0  0  0  0  0
    3.4829  -10.5697   30.2091 N   0  0  0  0  0  0  0  0  0  0  0  0
   -0.3363   -6.1172   27.5628 C   0  0  0  0  0  0  0  0  0  0  0  0
    3.0331   -7.4400   27.6362 C   0  0  0  0  0  0  0  0  0  0  0  0
    5.4553   -8.5933   27.9644 C   0  0  0  0  0  0  0  0  0  0  0  0
   -2.3870  -12.8440   19.2512 C   0  0  0  0  0  0  0  0  0  0  0  0
    0.5331   -7.6964   16.2751 C   0  0  0  0  0  0  0  0  0  0  0  0
   -0.6740  -10.8737   18.0482 C   0  0  0  0  0  0  0  0  0  0  0  0
    5.6751  -10.5870   29.7637 O   0  0  0  0  0  0  0  0  0  0  0  0
    1.7612   -5.6483   26.7172 C   0  0  0  0  0  0  0  0  0  0  0  0
    0.2221   -9.8326   17.4055 C   0  0  0  0  0  0  0  0  0  0  0  0
    4.3850   -9.0730   28.6745 C   0  0  0  0  0  0  0  0  0  0  0  0
  1  7  4  0
  1 22  4  0
  2 17  4  0
  2 20  4  0
  2 28  4  0
  3  6  1  0
  3 19  1  0
  4 19  1  0
  4 26  1  0
  5 17  4  0
  5 18  4  0
  6 20  1  0
  6 26  1  0
  7 24  4  0
  8 15  4  0
  8 24  4  0
  9 14  4  0
  9 21  4  0
 10 12  4  0
 10 27  4  0
 11 12  4  0
 11 23  4  0
 13 23  4  0
 13 27  4  0
 14 20  4  0
 15 22  4  0
 16 18  4  0
 16 25  2  0
 16 28  4  0
 21 28  4  0
 24 27  1  0
M  END
$$$$

 Created by Python create_sdf_string function

 28 31  0  0  0  0  0  0  0  0999 V2000
   -1.0054  -13.0622   19.1198 C   0  0  0  0  0  0  0  0  0  0  0  0
    3.1478   -8.5360   28.5161 C   0  0  0  0  0  0  0  0  0  0  0  0
    0.5798   -7.1906   27.9330 C   0  0  0  0  0  0  0  0  0  0  0  0
    0.3978   -5.1561   26.6955 C   0  0  0  0  0  0  0  0  0  0  0  0
    2.3063  -10.0533   30.0125 C   0  0  0  0  0  0  0  0  0  0  0  0
    1.8591   -6.8254   27.4685 N   0  0  0  0  0  0  0  0  0  0  0  0
   -0.2167  -12.1055   18.5568 C   0  0  0  0  0  0  0  0  0  0  0  0
   -2.0661  -10.6994   18.1916 C   0  0  0  0  0  0  0  0  0  0  0  0
    5.2703   -7.5691   27.1123 C   0  0  0  0  0  0  0  0  0  0  0  0
    1.6204   -9.9887   17.2935 C   0  0  0  0  0  0  0  0  0  0  0  0
    1.8931   -7.9265   16.2047 C   0  0  0  0  0  0  0  0  0  0  0  0
    2.4396   -9.0801   16.7132 C   0  0  0  0  0  0  0  0  0  0  0  0
   -0.2575   -8.6234   16.8582 C   0  0  0  0  0  0  0  0  0  0  0  0
    4.0614   -7.0367   27.0106 N   0  0  0  0  0  0  0  0  0  0  0  0
   -2.9133  -11.6279   18.7578 C   0  0  0  0  0  0  0  0  0  0  0  0
    4.5688  -10.1291   29.5758 C   0  0  0  0  0  0  0  0  0  0  0  0
    2.1008   -9.0410   29.1852 N   0  0  0  0  0  0  0  0  0  0  0  0
    3.4829  -10.5697   30.2091 N   0  0  0  0  0  0  0  0  0  0  0  0
   -0.3363   -6.1172   27.5628 C   0  0  0  0  0  0  0  0  0  0  0  0
    3.0331   -7.4400   27.6362 C   0  0  0  0  0  0  0  0  0  0  0  0
    5.4553   -8.5933   27.9644 C   0  0  0  0  0  0  0  0  0  0  0  0
   -2.3870  -12.8440   19.2512 C   0  0  0  0  0  0  0  0  0  0  0  0
    0.5331   -7.6964   16.2751 C   0  0  0  0  0  0  0  0  0  0  0  0
   -0.6740  -10.8737   18.0482 C   0  0  0  0  0  0  0  0  0  0  0  0
    5.6751  -10.5870   29.7637 O   0  0  0  0  0  0  0  0  0  0  0  0
    1.7612   -5.6483   26.7172 C   0  0  0  0  0  0  0  0  0  0  0  0
    0.2221   -9.8326   17.4055 C   0  0  0  0  0  0  0  0  0  0  0  0
    4.3850   -9.0730   28.6745 C   0  0  0  0  0  0  0  0  0  0  0  0
  1  7  4  0
  1 22  4  0
  2 17  4  0
  2 20  4  0
  2 28  4  0
  3  6  1  0
  3 19  1  0
  4 19  1  0
  4 26  1  0
  5 17  4  0
  5 18  4  0
  6 20  1  0
  6 26  1  0
  7 24  4  0
  8 15  4  0
  8 24  4  0
  9 14  4  0
  9 21  4  0
 10 12  4  0
 10 27  4  0
 11 12  4  0
 11 23  4  0
 13 23  4  0
 13 27  4  0
 14 20  4  0
 15 22  4  0
 16 18  4  0
 16 25  2  0
 16 28  4  0
 21 28  4  0
 24 27  1  0
M  END
$$$$

 Created by Python create_sdf_string function

 28 31  0  0  0  0  0  0  0  0999 V2000
   -1.0054  -13.0622   19.1198 C   0  0  0  0  0  0  0  0  0  0  0  0
    3.1478   -8.5360   28.5161 C   0  0  0  0  0  0  0  0  0  0  0  0
    0.5798   -7.1906   27.9330 C   0  0  0  0  0  0  0  0  0  0  0  0
    0.3978   -5.1561   26.6955 C   0  0  0  0  0  0  0  0  0  0  0  0
    2.3063  -10.0533   30.0125 C   0  0  0  0  0  0  0  0  0  0  0  0
    1.8591   -6.8254   27.4685 N   0  0  0  0  0  0  0  0  0  0  0  0
   -0.2167  -12.1055   18.5568 C   0  0  0  0  0  0  0  0  0  0  0  0
   -2.0661  -10.6994   18.1916 C   0  0  0  0  0  0  0  0  0  0  0  0
    5.2703   -7.5691   27.1123 C   0  0  0  0  0  0  0  0  0  0  0  0
    1.6204   -9.9887   17.2935 C   0  0  0  0  0  0  0  0  0  0  0  0
    1.8931   -7.9265   16.2047 C   0  0  0  0  0  0  0  0  0  0  0  0
    2.4396   -9.0801   16.7132 C   0  0  0  0  0  0  0  0  0  0  0  0
   -0.2575   -8.6234   16.8582 C   0  0  0  0  0  0  0  0  0  0  0  0
    4.0614   -7.0367   27.0106 N   0  0  0  0  0  0  0  0  0  0  0  0
   -2.9133  -11.6279   18.7578 C   0  0  0  0  0  0  0  0  0  0  0  0
    4.5688  -10.1291   29.5758 C   0  0  0  0  0  0  0  0  0  0  0  0
    2.1008   -9.0410   29.1852 N   0  0  0  0  0  0  0  0  0  0  0  0
    3.4829  -10.5697   30.2091 N   0  0  0  0  0  0  0  0  0  0  0  0
   -0.3363   -6.1172   27.5628 C   0  0  0  0  0  0  0  0  0  0  0  0
    3.0331   -7.4400   27.6362 C   0  0  0  0  0  0  0  0  0  0  0  0
    5.4553   -8.5933   27.9644 C   0  0  0  0  0  0  0  0  0  0  0  0
   -2.3870  -12.8440   19.2512 C   0  0  0  0  0  0  0  0  0  0  0  0
    0.5331   -7.6964   16.2751 C   0  0  0  0  0  0  0  0  0  0  0  0
   -0.6740  -10.8737   18.0482 C   0  0  0  0  0  0  0  0  0  0  0  0
    5.6751  -10.5870   29.7637 O   0  0  0  0  0  0  0  0  0  0  0  0
    1.7612   -5.6483   26.7172 C   0  0  0  0  0  0  0  0  0  0  0  0
    0.2221   -9.8326   17.4055 C   0  0  0  0  0  0  0  0  0  0  0  0
    4.3850   -9.0730   28.6745 C   0  0  0  0  0  0  0  0  0  0  0  0
  1  7  4  0
  1 22  4  0
  2 17  4  0
  2 20  4  0
  2 28  4  0
  3  6  1  0
  3 19  1  0
  4 19  1  0
  4 26  1  0
  5 17  4  0
  5 18  4  0
  6 20  1  0
  6 26  1  0
  7 24  4  0
  8 15  4  0
  8 24  4  0
  9 14  4  0
  9 21  4  0
 10 12  4  0
 10 27  4  0
 11 12  4  0
 11 23  4  0
 13 23  4  0
 13 27  4  0
 14 20  4  0
 15 22  4  0
 16 18  4  0
 16 25  2  0
 16 28  4  0
 21 28  4  0
 24 27  1  0
M  END
$$$$

 Created by Python create_sdf_string function

 28 31  0  0  0  0  0  0  0  0999 V2000
   -1.0054  -13.0622   19.1198 C   0  0  0  0  0  0  0  0  0  0  0  0
    3.1478   -8.5360   28.5161 C   0  0  0  0  0  0  0  0  0  0  0  0
    0.5798   -7.1906   27.9330 C   0  0  0  0  0  0  0  0  0  0  0  0
    0.3978   -5.1561   26.6955 C   0  0  0  0  0  0  0  0  0  0  0  0
    2.3063  -10.0533   30.0125 C   0  0  0  0  0  0  0  0  0  0  0  0
    1.8591   -6.8254   27.4685 N   0  0  0  0  0  0  0  0  0  0  0  0
   -0.2167  -12.1055   18.5568 C   0  0  0  0  0  0  0  0  0  0  0  0
   -2.0661  -10.6994   18.1916 C   0  0  0  0  0  0  0  0  0  0  0  0
    5.2703   -7.5691   27.1123 C   0  0  0  0  0  0  0  0  0  0  0  0
    1.6204   -9.9887   17.2935 C   0  0  0  0  0  0  0  0  0  0  0  0
    1.8931   -7.9265   16.2047 C   0  0  0  0  0  0  0  0  0  0  0  0
    2.4396   -9.0801   16.7132 C   0  0  0  0  0  0  0  0  0  0  0  0
   -0.2575   -8.6234   16.8582 C   0  0  0  0  0  0  0  0  0  0  0  0
    4.0614   -7.0367   27.0106 N   0  0  0  0  0  0  0  0  0  0  0  0
   -2.9133  -11.6279   18.7578 C   0  0  0  0  0  0  0  0  0  0  0  0
    4.5688  -10.1291   29.5758 C   0  0  0  0  0  0  0  0  0  0  0  0
    2.1008   -9.0410   29.1852 N   0  0  0  0  0  0  0  0  0  0  0  0
    3.4829  -10.5697   30.2091 N   0  0  0  0  0  0  0  0  0  0  0  0
   -0.3363   -6.1172   27.5628 C   0  0  0  0  0  0  0  0  0  0  0  0
    3.0331   -7.4400   27.6362 C   0  0  0  0  0  0  0  0  0  0  0  0
    5.4553   -8.5933   27.9644 C   0  0  0  0  0  0  0  0  0  0  0  0
   -2.3870  -12.8440   19.2512 C   0  0  0  0  0  0  0  0  0  0  0  0
    0.5331   -7.6964   16.2751 C   0  0  0  0  0  0  0  0  0  0  0  0
   -0.6740  -10.8737   18.0482 C   0  0  0  0  0  0  0  0  0  0  0  0
    5.6751  -10.5870   29.7637 O   0  0  0  0  0  0  0  0  0  0  0  0
    1.7612   -5.6483   26.7172 C   0  0  0  0  0  0  0  0  0  0  0  0
    0.2221   -9.8326   17.4055 C   0  0  0  0  0  0  0  0  0  0  0  0
    4.3850   -9.0730   28.6745 C   0  0  0  0  0  0  0  0  0  0  0  0
  1  7  4  0
  1 22  4  0
  2 17  4  0
  2 20  4  0
  2 28  4  0
  3  6  1  0
  3 19  1  0
  4 19  1  0
  4 26  1  0
  5 17  4  0
  5 18  4  0
  6 20  1  0
  6 26  1  0
  7 24  4  0
  8 15  4  0
  8 24  4  0
  9 14  4  0
  9 21  4  0
 10 12  4  0
 10 27  4  0
 11 12  4  0
 11 23  4  0
 13 23  4  0
 13 27  4  0
 14 20  4  0
 15 22  4  0
 16 18  4  0
 16 25  2  0
 16 28  4  0
 21 28  4  0
 24 27  1  0
M  END
$$$$

 Created by Python create_sdf_string function

 28 31  0  0  0  0  0  0  0  0999 V2000
   -1.0054  -13.0622   19.1198 C   0  0  0  0  0  0  0  0  0  0  0  0
    3.1478   -8.5360   28.5161 C   0  0  0  0  0  0  0  0  0  0  0  0
    0.5798   -7.1906   27.9330 C   0  0  0  0  0  0  0  0  0  0  0  0
    0.3978   -5.1561   26.6955 C   0  0  0  0  0  0  0  0  0  0  0  0
    2.3063  -10.0533   30.0125 C   0  0  0  0  0  0  0  0  0  0  0  0
    1.8591   -6.8254   27.4685 N   0  0  0  0  0  0  0  0  0  0  0  0
   -0.2167  -12.1055   18.5568 C   0  0  0  0  0  0  0  0  0  0  0  0
   -2.0661  -10.6994   18.1916 C   0  0  0  0  0  0  0  0  0  0  0  0
    5.2703   -7.5691   27.1123 C   0  0  0  0  0  0  0  0  0  0  0  0
    1.6204   -9.9887   17.2935 C   0  0  0  0  0  0  0  0  0  0  0  0
    1.8931   -7.9265   16.2047 C   0  0  0  0  0  0  0  0  0  0  0  0
    2.4396   -9.0801   16.7132 C   0  0  0  0  0  0  0  0  0  0  0  0
   -0.2575   -8.6234   16.8582 C   0  0  0  0  0  0  0  0  0  0  0  0
    4.0614   -7.0367   27.0106 N   0  0  0  0  0  0  0  0  0  0  0  0
   -2.9133  -11.6279   18.7578 C   0  0  0  0  0  0  0  0  0  0  0  0
    4.5688  -10.1291   29.5758 C   0  0  0  0  0  0  0  0  0  0  0  0
    2.1008   -9.0410   29.1852 N   0  0  0  0  0  0  0  0  0  0  0  0
    3.4829  -10.5697   30.2091 N   0  0  0  0  0  0  0  0  0  0  0  0
   -0.3363   -6.1172   27.5628 C   0  0  0  0  0  0  0  0  0  0  0  0
    3.0331   -7.4400   27.6362 C   0  0  0  0  0  0  0  0  0  0  0  0
    5.4553   -8.5933   27.9644 C   0  0  0  0  0  0  0  0  0  0  0  0
   -2.3870  -12.8440   19.2512 C   0  0  0  0  0  0  0  0  0  0  0  0
    0.5331   -7.6964   16.2751 C   0  0  0  0  0  0  0  0  0  0  0  0
   -0.6740  -10.8737   18.0482 C   0  0  0  0  0  0  0  0  0  0  0  0
    5.6751  -10.5870   29.7637 O   0  0  0  0  0  0  0  0  0  0  0  0
    1.7612   -5.6483   26.7172 C   0  0  0  0  0  0  0  0  0  0  0  0
    0.2221   -9.8326   17.4055 C   0  0  0  0  0  0  0  0  0  0  0  0
    4.3850   -9.0730   28.6745 C   0  0  0  0  0  0  0  0  0  0  0  0
  1  7  4  0
  1 22  4  0
  2 17  4  0
  2 20  4  0
  2 28  4  0
  3  6  1  0
  3 19  1  0
  4 19  1  0
  4 26  1  0
  5 17  4  0
  5 18  4  0
  6 20  1  0
  6 26  1  0
  7 24  4  0
  8 15  4  0
  8 24  4  0
  9 14  4  0
  9 21  4  0
 10 12  4  0
 10 27  4  0
 11 12  4  0
 11 23  4  0
 13 23  4  0
 13 27  4  0
 14 20  4  0
 15 22  4  0
 16 18  4  0
 16 25  2  0
 16 28  4  0
 21 28  4  0
 24 27  1  0
M  END
$$$$

 Created by Python create_sdf_string function

 28 31  0  0  0  0  0  0  0  0999 V2000
   -1.0054  -13.0622   19.1198 C   0  0  0  0  0  0  0  0  0  0  0  0
    3.1478   -8.5360   28.5161 C   0  0  0  0  0  0  0  0  0  0  0  0
    0.5798   -7.1906   27.9330 C   0  0  0  0  0  0  0  0  0  0  0  0
    0.3978   -5.1561   26.6955 C   0  0  0  0  0  0  0  0  0  0  0  0
    2.3063  -10.0533   30.0125 C   0  0  0  0  0  0  0  0  0  0  0  0
    1.8591   -6.8254   27.4685 N   0  0  0  0  0  0  0  0  0  0  0  0
   -0.2167  -12.1055   18.5568 C   0  0  0  0  0  0  0  0  0  0  0  0
   -2.0661  -10.6994   18.1916 C   0  0  0  0  0  0  0  0  0  0  0  0
    5.2703   -7.5691   27.1123 C   0  0  0  0  0  0  0  0  0  0  0  0
    1.6204   -9.9887   17.2935 C   0  0  0  0  0  0  0  0  0  0  0  0
    1.8931   -7.9265   16.2047 C   0  0  0  0  0  0  0  0  0  0  0  0
    2.4396   -9.0801   16.7132 C   0  0  0  0  0  0  0  0  0  0  0  0
   -0.2575   -8.6234   16.8582 C   0  0  0  0  0  0  0  0  0  0  0  0
    4.0614   -7.0367   27.0106 N   0  0  0  0  0  0  0  0  0  0  0  0
   -2.9133  -11.6279   18.7578 C   0  0  0  0  0  0  0  0  0  0  0  0
    4.5688  -10.1291   29.5758 C   0  0  0  0  0  0  0  0  0  0  0  0
    2.1008   -9.0410   29.1852 N   0  0  0  0  0  0  0  0  0  0  0  0
    3.4829  -10.5697   30.2091 N   0  0  0  0  0  0  0  0  0  0  0  0
   -0.3363   -6.1172   27.5628 C   0  0  0  0  0  0  0  0  0  0  0  0
    3.0331   -7.4400   27.6362 C   0  0  0  0  0  0  0  0  0  0  0  0
    5.4553   -8.5933   27.9644 C   0  0  0  0  0  0  0  0  0  0  0  0
   -2.3870  -12.8440   19.2512 C   0  0  0  0  0  0  0  0  0  0  0  0
    0.5331   -7.6964   16.2751 C   0  0  0  0  0  0  0  0  0  0  0  0
   -0.6740  -10.8737   18.0482 C   0  0  0  0  0  0  0  0  0  0  0  0
    5.6751  -10.5870   29.7637 O   0  0  0  0  0  0  0  0  0  0  0  0
    1.7612   -5.6483   26.7172 C   0  0  0  0  0  0  0  0  0  0  0  0
    0.2221   -9.8326   17.4055 C   0  0  0  0  0  0  0  0  0  0  0  0
    4.3850   -9.0730   28.6745 C   0  0  0  0  0  0  0  0  0  0  0  0
  1  7  4  0
  1 22  4  0
  2 17  4  0
  2 20  4  0
  2 28  4  0
  3  6  1  0
  3 19  1  0
  4 19  1  0
  4 26  1  0
  5 17  4  0
  5 18  4  0
  6 20  1  0
  6 26  1  0
  7 24  4  0
  8 15  4  0
  8 24  4  0
  9 14  4  0
  9 21  4  0
 10 12  4  0
 10 27  4  0
 11 12  4  0
 11 23  4  0
 13 23  4  0
 13 27  4  0
 14 20  4  0
 15 22  4  0
 16 18  4  0
 16 25  2  0
 16 28  4  0
 21 28  4  0
 24 27  1  0
M  END
$$$$

 Created by Python create_sdf_string function

 28 31  0  0  0  0  0  0  0  0999 V2000
   -1.0054  -13.0622   19.1198 C   0  0  0  0  0  0  0  0  0  0  0  0
    3.1478   -8.5360   28.5161 C   0  0  0  0  0  0  0  0  0  0  0  0
    0.5798   -7.1906   27.9330 C   0  0  0  0  0  0  0  0  0  0  0  0
    0.3978   -5.1561   26.6955 C   0  0  0  0  0  0  0  0  0  0  0  0
    2.3063  -10.0533   30.0125 C   0  0  0  0  0  0  0  0  0  0  0  0
    1.8591   -6.8254   27.4685 N   0  0  0  0  0  0  0  0  0  0  0  0
   -0.2167  -12.1055   18.5568 C   0  0  0  0  0  0  0  0  0  0  0  0
   -2.0661  -10.6994   18.1916 C   0  0  0  0  0  0  0  0  0  0  0  0
    5.2703   -7.5691   27.1123 C   0  0  0  0  0  0  0  0  0  0  0  0
    1.6204   -9.9887   17.2935 C   0  0  0  0  0  0  0  0  0  0  0  0
    1.8931   -7.9265   16.2047 C   0  0  0  0  0  0  0  0  0  0  0  0
    2.4396   -9.0801   16.7132 C   0  0  0  0  0  0  0  0  0  0  0  0
   -0.2575   -8.6234   16.8582 C   0  0  0  0  0  0  0  0  0  0  0  0
    4.0614   -7.0367   27.0106 N   0  0  0  0  0  0  0  0  0  0  0  0
   -2.9133  -11.6279   18.7578 C   0  0  0  0  0  0  0  0  0  0  0  0
    4.5688  -10.1291   29.5758 C   0  0  0  0  0  0  0  0  0  0  0  0
    2.1008   -9.0410   29.1852 N   0  0  0  0  0  0  0  0  0  0  0  0
    3.4829  -10.5697   30.2091 N   0  0  0  0  0  0  0  0  0  0  0  0
   -0.3363   -6.1172   27.5628 C   0  0  0  0  0  0  0  0  0  0  0  0
    3.0331   -7.4400   27.6362 C   0  0  0  0  0  0  0  0  0  0  0  0
    5.4553   -8.5933   27.9644 C   0  0  0  0  0  0  0  0  0  0  0  0
   -2.3870  -12.8440   19.2512 C   0  0  0  0  0  0  0  0  0  0  0  0
    0.5331   -7.6964   16.2751 C   0  0  0  0  0  0  0  0  0  0  0  0
   -0.6740  -10.8737   18.0482 C   0  0  0  0  0  0  0  0  0  0  0  0
    5.6751  -10.5870   29.7637 O   0  0  0  0  0  0  0  0  0  0  0  0
    1.7612   -5.6483   26.7172 C   0  0  0  0  0  0  0  0  0  0  0  0
    0.2221   -9.8326   17.4055 C   0  0  0  0  0  0  0  0  0  0  0  0
    4.3850   -9.0730   28.6745 C   0  0  0  0  0  0  0  0  0  0  0  0
  1  7  4  0
  1 22  4  0
  2 17  4  0
  2 20  4  0
  2 28  4  0
  3  6  1  0
  3 19  1  0
  4 19  1  0
  4 26  1  0
  5 17  4  0
  5 18  4  0
  6 20  1  0
  6 26  1  0
  7 24  4  0
  8 15  4  0
  8 24  4  0
  9 14  4  0
  9 21  4  0
 10 12  4  0
 10 27  4  0
 11 12  4  0
 11 23  4  0
 13 23  4  0
 13 27  4  0
 14 20  4  0
 15 22  4  0
 16 18  4  0
 16 25  2  0
 16 28  4  0
 21 28  4  0
 24 27  1  0
M  END
$$$$

 Created by Python create_sdf_string function

 28 31  0  0  0  0  0  0  0  0999 V2000
   -1.0054  -13.0622   19.1198 C   0  0  0  0  0  0  0  0  0  0  0  0
    3.1478   -8.5360   28.5161 C   0  0  0  0  0  0  0  0  0  0  0  0
    0.5798   -7.1906   27.9330 C   0  0  0  0  0  0  0  0  0  0  0  0
    0.3978   -5.1561   26.6955 C   0  0  0  0  0  0  0  0  0  0  0  0
    2.3063  -10.0533   30.0125 C   0  0  0  0  0  0  0  0  0  0  0  0
    1.8591   -6.8254   27.4685 N   0  0  0  0  0  0  0  0  0  0  0  0
   -0.2167  -12.1055   18.5568 C   0  0  0  0  0  0  0  0  0  0  0  0
   -2.0661  -10.6994   18.1916 C   0  0  0  0  0  0  0  0  0  0  0  0
    5.2703   -7.5691   27.1123 C   0  0  0  0  0  0  0  0  0  0  0  0
    1.6204   -9.9887   17.2935 C   0  0  0  0  0  0  0  0  0  0  0  0
    1.8931   -7.9265   16.2047 C   0  0  0  0  0  0  0  0  0  0  0  0
    2.4396   -9.0801   16.7132 C   0  0  0  0  0  0  0  0  0  0  0  0
   -0.2575   -8.6234   16.8582 C   0  0  0  0  0  0  0  0  0  0  0  0
    4.0614   -7.0367   27.0106 N   0  0  0  0  0  0  0  0  0  0  0  0
   -2.9133  -11.6279   18.7578 C   0  0  0  0  0  0  0  0  0  0  0  0
    4.5688  -10.1291   29.5758 C   0  0  0  0  0  0  0  0  0  0  0  0
    2.1008   -9.0410   29.1852 N   0  0  0  0  0  0  0  0  0  0  0  0
    3.4829  -10.5697   30.2091 N   0  0  0  0  0  0  0  0  0  0  0  0
   -0.3363   -6.1172   27.5628 C   0  0  0  0  0  0  0  0  0  0  0  0
    3.0331   -7.4400   27.6362 C   0  0  0  0  0  0  0  0  0  0  0  0
    5.4553   -8.5933   27.9644 C   0  0  0  0  0  0  0  0  0  0  0  0
   -2.3870  -12.8440   19.2512 C   0  0  0  0  0  0  0  0  0  0  0  0
    0.5331   -7.6964   16.2751 C   0  0  0  0  0  0  0  0  0  0  0  0
   -0.6740  -10.8737   18.0482 C   0  0  0  0  0  0  0  0  0  0  0  0
    5.6751  -10.5870   29.7637 O   0  0  0  0  0  0  0  0  0  0  0  0
    1.7612   -5.6483   26.7172 C   0  0  0  0  0  0  0  0  0  0  0  0
    0.2221   -9.8326   17.4055 C   0  0  0  0  0  0  0  0  0  0  0  0
    4.3850   -9.0730   28.6745 C   0  0  0  0  0  0  0  0  0  0  0  0
  1  7  4  0
  1 22  4  0
  2 17  4  0
  2 20  4  0
  2 28  4  0
  3  6  1  0
  3 19  1  0
  4 19  1  0
  4 26  1  0
  5 17  4  0
  5 18  4  0
  6 20  1  0
  6 26  1  0
  7 24  4  0
  8 15  4  0
  8 24  4  0
  9 14  4  0
  9 21  4  0
 10 12  4  0
 10 27  4  0
 11 12  4  0
 11 23  4  0
 13 23  4  0
 13 27  4  0
 14 20  4  0
 15 22  4  0
 16 18  4  0
 16 25  2  0
 16 28  4  0
 21 28  4  0
 24 27  1  0
M  END
$$$$

 Created by Python create_sdf_string function

 28 31  0  0  0  0  0  0  0  0999 V2000
   -1.0054  -13.0622   19.1198 C   0  0  0  0  0  0  0  0  0  0  0  0
    3.1478   -8.5360   28.5161 C   0  0  0  0  0  0  0  0  0  0  0  0
    0.5798   -7.1906   27.9330 C   0  0  0  0  0  0  0  0  0  0  0  0
    0.3978   -5.1561   26.6955 C   0  0  0  0  0  0  0  0  0  0  0  0
    2.3063  -10.0533   30.0125 C   0  0  0  0  0  0  0  0  0  0  0  0
    1.8591   -6.8254   27.4685 N   0  0  0  0  0  0  0  0  0  0  0  0
   -0.2167  -12.1055   18.5568 C   0  0  0  0  0  0  0  0  0  0  0  0
   -2.0661  -10.6994   18.1916 C   0  0  0  0  0  0  0  0  0  0  0  0
    5.2703   -7.5691   27.1123 C   0  0  0  0  0  0  0  0  0  0  0  0
    1.6204   -9.9887   17.2935 C   0  0  0  0  0  0  0  0  0  0  0  0
    1.8931   -7.9265   16.2047 C   0  0  0  0  0  0  0  0  0  0  0  0
    2.4396   -9.0801   16.7132 C   0  0  0  0  0  0  0  0  0  0  0  0
   -0.2575   -8.6234   16.8582 C   0  0  0  0  0  0  0  0  0  0  0  0
    4.0614   -7.0367   27.0106 N   0  0  0  0  0  0  0  0  0  0  0  0
   -2.9133  -11.6279   18.7578 C   0  0  0  0  0  0  0  0  0  0  0  0
    4.5688  -10.1291   29.5758 C   0  0  0  0  0  0  0  0  0  0  0  0
    2.1008   -9.0410   29.1852 N   0  0  0  0  0  0  0  0  0  0  0  0
    3.4829  -10.5697   30.2091 N   0  0  0  0  0  0  0  0  0  0  0  0
   -0.3363   -6.1172   27.5628 C   0  0  0  0  0  0  0  0  0  0  0  0
    3.0331   -7.4400   27.6362 C   0  0  0  0  0  0  0  0  0  0  0  0
    5.4553   -8.5933   27.9644 C   0  0  0  0  0  0  0  0  0  0  0  0
   -2.3870  -12.8440   19.2512 C   0  0  0  0  0  0  0  0  0  0  0  0
    0.5331   -7.6964   16.2751 C   0  0  0  0  0  0  0  0  0  0  0  0
   -0.6740  -10.8737   18.0482 C   0  0  0  0  0  0  0  0  0  0  0  0
    5.6751  -10.5870   29.7637 O   0  0  0  0  0  0  0  0  0  0  0  0
    1.7612   -5.6483   26.7172 C   0  0  0  0  0  0  0  0  0  0  0  0
    0.2221   -9.8326   17.4055 C   0  0  0  0  0  0  0  0  0  0  0  0
    4.3850   -9.0730   28.6745 C   0  0  0  0  0  0  0  0  0  0  0  0
  1  7  4  0
  1 22  4  0
  2 17  4  0
  2 20  4  0
  2 28  4  0
  3  6  1  0
  3 19  1  0
  4 19  1  0
  4 26  1  0
  5 17  4  0
  5 18  4  0
  6 20  1  0
  6 26  1  0
  7 24  4  0
  8 15  4  0
  8 24  4  0
  9 14  4  0
  9 21  4  0
 10 12  4  0
 10 27  4  0
 11 12  4  0
 11 23  4  0
 13 23  4  0
 13 27  4  0
 14 20  4  0
 15 22  4  0
 16 18  4  0
 16 25  2  0
 16 28  4  0
 21 28  4  0
 24 27  1  0
M  END
$$$$

 Created by Python create_sdf_string function

 28 31  0  0  0  0  0  0  0  0999 V2000
   -1.0054  -13.0622   19.1198 C   0  0  0  0  0  0  0  0  0  0  0  0
    3.1478   -8.5360   28.5161 C   0  0  0  0  0  0  0  0  0  0  0  0
    0.5798   -7.1906   27.9330 C   0  0  0  0  0  0  0  0  0  0  0  0
    0.3978   -5.1561   26.6955 C   0  0  0  0  0  0  0  0  0  0  0  0
    2.3063  -10.0533   30.0125 C   0  0  0  0  0  0  0  0  0  0  0  0
    1.8591   -6.8254   27.4685 N   0  0  0  0  0  0  0  0  0  0  0  0
   -0.2167  -12.1055   18.5568 C   0  0  0  0  0  0  0  0  0  0  0  0
   -2.0661  -10.6994   18.1916 C   0  0  0  0  0  0  0  0  0  0  0  0
    5.2703   -7.5691   27.1123 C   0  0  0  0  0  0  0  0  0  0  0  0
    1.6204   -9.9887   17.2935 C   0  0  0  0  0  0  0  0  0  0  0  0
    1.8931   -7.9265   16.2047 C   0  0  0  0  0  0  0  0  0  0  0  0
    2.4396   -9.0801   16.7132 C   0  0  0  0  0  0  0  0  0  0  0  0
   -0.2575   -8.6234   16.8582 C   0  0  0  0  0  0  0  0  0  0  0  0
    4.0614   -7.0367   27.0106 N   0  0  0  0  0  0  0  0  0  0  0  0
   -2.9133  -11.6279   18.7578 C   0  0  0  0  0  0  0  0  0  0  0  0
    4.5688  -10.1291   29.5758 C   0  0  0  0  0  0  0  0  0  0  0  0
    2.1008   -9.0410   29.1852 N   0  0  0  0  0  0  0  0  0  0  0  0
    3.4829  -10.5697   30.2091 N   0  0  0  0  0  0  0  0  0  0  0  0
   -0.3363   -6.1172   27.5628 C   0  0  0  0  0  0  0  0  0  0  0  0
    3.0331   -7.4400   27.6362 C   0  0  0  0  0  0  0  0  0  0  0  0
    5.4553   -8.5933   27.9644 C   0  0  0  0  0  0  0  0  0  0  0  0
   -2.3870  -12.8440   19.2512 C   0  0  0  0  0  0  0  0  0  0  0  0
    0.5331   -7.6964   16.2751 C   0  0  0  0  0  0  0  0  0  0  0  0
   -0.6740  -10.8737   18.0482 C   0  0  0  0  0  0  0  0  0  0  0  0
    5.6751  -10.5870   29.7637 O   0  0  0  0  0  0  0  0  0  0  0  0
    1.7612   -5.6483   26.7172 C   0  0  0  0  0  0  0  0  0  0  0  0
    0.2221   -9.8326   17.4055 C   0  0  0  0  0  0  0  0  0  0  0  0
    4.3850   -9.0730   28.6745 C   0  0  0  0  0  0  0  0  0  0  0  0
  1  7  4  0
  1 22  4  0
  2 17  4  0
  2 20  4  0
  2 28  4  0
  3  6  1  0
  3 19  1  0
  4 19  1  0
  4 26  1  0
  5 17  4  0
  5 18  4  0
  6 20  1  0
  6 26  1  0
  7 24  4  0
  8 15  4  0
  8 24  4  0
  9 14  4  0
  9 21  4  0
 10 12  4  0
 10 27  4  0
 11 12  4  0
 11 23  4  0
 13 23  4  0
 13 27  4  0
 14 20  4  0
 15 22  4  0
 16 18  4  0
 16 25  2  0
 16 28  4  0
 21 28  4  0
 24 27  1  0
M  END
$$$$

 Created by Python create_sdf_string function

 28 31  0  0  0  0  0  0  0  0999 V2000
   -1.0054  -13.0622   19.1198 C   0  0  0  0  0  0  0  0  0  0  0  0
    3.1478   -8.5360   28.5161 C   0  0  0  0  0  0  0  0  0  0  0  0
    0.5798   -7.1906   27.9330 C   0  0  0  0  0  0  0  0  0  0  0  0
    0.3978   -5.1561   26.6955 C   0  0  0  0  0  0  0  0  0  0  0  0
    2.3063  -10.0533   30.0125 C   0  0  0  0  0  0  0  0  0  0  0  0
    1.8591   -6.8254   27.4685 N   0  0  0  0  0  0  0  0  0  0  0  0
   -0.2167  -12.1055   18.5568 C   0  0  0  0  0  0  0  0  0  0  0  0
   -2.0661  -10.6994   18.1916 C   0  0  0  0  0  0  0  0  0  0  0  0
    5.2703   -7.5691   27.1123 C   0  0  0  0  0  0  0  0  0  0  0  0
    1.6204   -9.9887   17.2935 C   0  0  0  0  0  0  0  0  0  0  0  0
    1.8931   -7.9265   16.2047 C   0  0  0  0  0  0  0  0  0  0  0  0
    2.4396   -9.0801   16.7132 C   0  0  0  0  0  0  0  0  0  0  0  0
   -0.2575   -8.6234   16.8582 C   0  0  0  0  0  0  0  0  0  0  0  0
    4.0614   -7.0367   27.0106 N   0  0  0  0  0  0  0  0  0  0  0  0
   -2.9133  -11.6279   18.7578 C   0  0  0  0  0  0  0  0  0  0  0  0
    4.5688  -10.1291   29.5758 C   0  0  0  0  0  0  0  0  0  0  0  0
    2.1008   -9.0410   29.1852 N   0  0  0  0  0  0  0  0  0  0  0  0
    3.4829  -10.5697   30.2091 N   0  0  0  0  0  0  0  0  0  0  0  0
   -0.3363   -6.1172   27.5628 C   0  0  0  0  0  0  0  0  0  0  0  0
    3.0331   -7.4400   27.6362 C   0  0  0  0  0  0  0  0  0  0  0  0
    5.4553   -8.5933   27.9644 C   0  0  0  0  0  0  0  0  0  0  0  0
   -2.3870  -12.8440   19.2512 C   0  0  0  0  0  0  0  0  0  0  0  0
    0.5331   -7.6964   16.2751 C   0  0  0  0  0  0  0  0  0  0  0  0
   -0.6740  -10.8737   18.0482 C   0  0  0  0  0  0  0  0  0  0  0  0
    5.6751  -10.5870   29.7637 O   0  0  0  0  0  0  0  0  0  0  0  0
    1.7612   -5.6483   26.7172 C   0  0  0  0  0  0  0  0  0  0  0  0
    0.2221   -9.8326   17.4055 C   0  0  0  0  0  0  0  0  0  0  0  0
    4.3850   -9.0730   28.6745 C   0  0  0  0  0  0  0  0  0  0  0  0
  1  7  4  0
  1 22  4  0
  2 17  4  0
  2 20  4  0
  2 28  4  0
  3  6  1  0
  3 19  1  0
  4 19  1  0
  4 26  1  0
  5 17  4  0
  5 18  4  0
  6 20  1  0
  6 26  1  0
  7 24  4  0
  8 15  4  0
  8 24  4  0
  9 14  4  0
  9 21  4  0
 10 12  4  0
 10 27  4  0
 11 12  4  0
 11 23  4  0
 13 23  4  0
 13 27  4  0
 14 20  4  0
 15 22  4  0
 16 18  4  0
 16 25  2  0
 16 28  4  0
 21 28  4  0
 24 27  1  0
M  END
$$$$

 Created by Python create_sdf_string function

 28 31  0  0  0  0  0  0  0  0999 V2000
   -1.0054  -13.0622   19.1198 C   0  0  0  0  0  0  0  0  0  0  0  0
    3.1478   -8.5360   28.5161 C   0  0  0  0  0  0  0  0  0  0  0  0
    0.5798   -7.1906   27.9330 C   0  0  0  0  0  0  0  0  0  0  0  0
    0.3978   -5.1561   26.6955 C   0  0  0  0  0  0  0  0  0  0  0  0
    2.3063  -10.0533   30.0125 C   0  0  0  0  0  0  0  0  0  0  0  0
    1.8591   -6.8254   27.4685 N   0  0  0  0  0  0  0  0  0  0  0  0
   -0.2167  -12.1055   18.5568 C   0  0  0  0  0  0  0  0  0  0  0  0
   -2.0661  -10.6994   18.1916 C   0  0  0  0  0  0  0  0  0  0  0  0
    5.2703   -7.5691   27.1123 C   0  0  0  0  0  0  0  0  0  0  0  0
    1.6204   -9.9887   17.2935 C   0  0  0  0  0  0  0  0  0  0  0  0
    1.8931   -7.9265   16.2047 C   0  0  0  0  0  0  0  0  0  0  0  0
    2.4396   -9.0801   16.7132 C   0  0  0  0  0  0  0  0  0  0  0  0
   -0.2575   -8.6234   16.8582 C   0  0  0  0  0  0  0  0  0  0  0  0
    4.0614   -7.0367   27.0106 N   0  0  0  0  0  0  0  0  0  0  0  0
   -2.9133  -11.6279   18.7578 C   0  0  0  0  0  0  0  0  0  0  0  0
    4.5688  -10.1291   29.5758 C   0  0  0  0  0  0  0  0  0  0  0  0
    2.1008   -9.0410   29.1852 N   0  0  0  0  0  0  0  0  0  0  0  0
    3.4829  -10.5697   30.2091 N   0  0  0  0  0  0  0  0  0  0  0  0
   -0.3363   -6.1172   27.5628 C   0  0  0  0  0  0  0  0  0  0  0  0
    3.0331   -7.4400   27.6362 C   0  0  0  0  0  0  0  0  0  0  0  0
    5.4553   -8.5933   27.9644 C   0  0  0  0  0  0  0  0  0  0  0  0
   -2.3870  -12.8440   19.2512 C   0  0  0  0  0  0  0  0  0  0  0  0
    0.5331   -7.6964   16.2751 C   0  0  0  0  0  0  0  0  0  0  0  0
   -0.6740  -10.8737   18.0482 C   0  0  0  0  0  0  0  0  0  0  0  0
    5.6751  -10.5870   29.7637 O   0  0  0  0  0  0  0  0  0  0  0  0
    1.7612   -5.6483   26.7172 C   0  0  0  0  0  0  0  0  0  0  0  0
    0.2221   -9.8326   17.4055 C   0  0  0  0  0  0  0  0  0  0  0  0
    4.3850   -9.0730   28.6745 C   0  0  0  0  0  0  0  0  0  0  0  0
  1  7  4  0
  1 22  4  0
  2 17  4  0
  2 20  4  0
  2 28  4  0
  3  6  1  0
  3 19  1  0
  4 19  1  0
  4 26  1  0
  5 17  4  0
  5 18  4  0
  6 20  1  0
  6 26  1  0
  7 24  4  0
  8 15  4  0
  8 24  4  0
  9 14  4  0
  9 21  4  0
 10 12  4  0
 10 27  4  0
 11 12  4  0
 11 23  4  0
 13 23  4  0
 13 27  4  0
 14 20  4  0
 15 22  4  0
 16 18  4  0
 16 25  2  0
 16 28  4  0
 21 28  4  0
 24 27  1  0
M  END
$$$$

 Created by Python create_sdf_string function

 28 31  0  0  0  0  0  0  0  0999 V2000
   -1.0054  -13.0622   19.1198 C   0  0  0  0  0  0  0  0  0  0  0  0
    3.1478   -8.5360   28.5161 C   0  0  0  0  0  0  0  0  0  0  0  0
    0.5798   -7.1906   27.9330 C   0  0  0  0  0  0  0  0  0  0  0  0
    0.3978   -5.1561   26.6955 C   0  0  0  0  0  0  0  0  0  0  0  0
    2.3063  -10.0533   30.0125 C   0  0  0  0  0  0  0  0  0  0  0  0
    1.8591   -6.8254   27.4685 N   0  0  0  0  0  0  0  0  0  0  0  0
   -0.2167  -12.1055   18.5568 C   0  0  0  0  0  0  0  0  0  0  0  0
   -2.0661  -10.6994   18.1916 C   0  0  0  0  0  0  0  0  0  0  0  0
    5.2703   -7.5691   27.1123 C   0  0  0  0  0  0  0  0  0  0  0  0
    1.6204   -9.9887   17.2935 C   0  0  0  0  0  0  0  0  0  0  0  0
    1.8931   -7.9265   16.2047 C   0  0  0  0  0  0  0  0  0  0  0  0
    2.4396   -9.0801   16.7132 C   0  0  0  0  0  0  0  0  0  0  0  0
   -0.2575   -8.6234   16.8582 C   0  0  0  0  0  0  0  0  0  0  0  0
    4.0614   -7.0367   27.0106 N   0  0  0  0  0  0  0  0  0  0  0  0
   -2.9133  -11.6279   18.7578 C   0  0  0  0  0  0  0  0  0  0  0  0
    4.5688  -10.1291   29.5758 C   0  0  0  0  0  0  0  0  0  0  0  0
    2.1008   -9.0410   29.1852 N   0  0  0  0  0  0  0  0  0  0  0  0
    3.4829  -10.5697   30.2091 N   0  0  0  0  0  0  0  0  0  0  0  0
   -0.3363   -6.1172   27.5628 C   0  0  0  0  0  0  0  0  0  0  0  0
    3.0331   -7.4400   27.6362 C   0  0  0  0  0  0  0  0  0  0  0  0
    5.4553   -8.5933   27.9644 C   0  0  0  0  0  0  0  0  0  0  0  0
   -2.3870  -12.8440   19.2512 C   0  0  0  0  0  0  0  0  0  0  0  0
    0.5331   -7.6964   16.2751 C   0  0  0  0  0  0  0  0  0  0  0  0
   -0.6740  -10.8737   18.0482 C   0  0  0  0  0  0  0  0  0  0  0  0
    5.6751  -10.5870   29.7637 O   0  0  0  0  0  0  0  0  0  0  0  0
    1.7612   -5.6483   26.7172 C   0  0  0  0  0  0  0  0  0  0  0  0
    0.2221   -9.8326   17.4055 C   0  0  0  0  0  0  0  0  0  0  0  0
    4.3850   -9.0730   28.6745 C   0  0  0  0  0  0  0  0  0  0  0  0
  1  7  4  0
  1 22  4  0
  2 17  4  0
  2 20  4  0
  2 28  4  0
  3  6  1  0
  3 19  1  0
  4 19  1  0
  4 26  1  0
  5 17  4  0
  5 18  4  0
  6 20  1  0
  6 26  1  0
  7 24  4  0
  8 15  4  0
  8 24  4  0
  9 14  4  0
  9 21  4  0
 10 12  4  0
 10 27  4  0
 11 12  4  0
 11 23  4  0
 13 23  4  0
 13 27  4  0
 14 20  4  0
 15 22  4  0
 16 18  4  0
 16 25  2  0
 16 28  4  0
 21 28  4  0
 24 27  1  0
M  END
$$$$

 Created by Python create_sdf_string function

 28 31  0  0  0  0  0  0  0  0999 V2000
   -1.0054  -13.0622   19.1198 C   0  0  0  0  0  0  0  0  0  0  0  0
    3.1478   -8.5360   28.5161 C   0  0  0  0  0  0  0  0  0  0  0  0
    0.5798   -7.1906   27.9330 C   0  0  0  0  0  0  0  0  0  0  0  0
    0.3978   -5.1561   26.6955 C   0  0  0  0  0  0  0  0  0  0  0  0
    2.3063  -10.0533   30.0125 C   0  0  0  0  0  0  0  0  0  0  0  0
    1.8591   -6.8254   27.4685 N   0  0  0  0  0  0  0  0  0  0  0  0
   -0.2167  -12.1055   18.5568 C   0  0  0  0  0  0  0  0  0  0  0  0
   -2.0661  -10.6994   18.1916 C   0  0  0  0  0  0  0  0  0  0  0  0
    5.2703   -7.5691   27.1123 C   0  0  0  0  0  0  0  0  0  0  0  0
    1.6204   -9.9887   17.2935 C   0  0  0  0  0  0  0  0  0  0  0  0
    1.8931   -7.9265   16.2047 C   0  0  0  0  0  0  0  0  0  0  0  0
    2.4396   -9.0801   16.7132 C   0  0  0  0  0  0  0  0  0  0  0  0
   -0.2575   -8.6234   16.8582 C   0  0  0  0  0  0  0  0  0  0  0  0
    4.0614   -7.0367   27.0106 N   0  0  0  0  0  0  0  0  0  0  0  0
   -2.9133  -11.6279   18.7578 C   0  0  0  0  0  0  0  0  0  0  0  0
    4.5688  -10.1291   29.5758 C   0  0  0  0  0  0  0  0  0  0  0  0
    2.1008   -9.0410   29.1852 N   0  0  0  0  0  0  0  0  0  0  0  0
    3.4829  -10.5697   30.2091 N   0  0  0  0  0  0  0  0  0  0  0  0
   -0.3363   -6.1172   27.5628 C   0  0  0  0  0  0  0  0  0  0  0  0
    3.0331   -7.4400   27.6362 C   0  0  0  0  0  0  0  0  0  0  0  0
    5.4553   -8.5933   27.9644 C   0  0  0  0  0  0  0  0  0  0  0  0
   -2.3870  -12.8440   19.2512 C   0  0  0  0  0  0  0  0  0  0  0  0
    0.5331   -7.6964   16.2751 C   0  0  0  0  0  0  0  0  0  0  0  0
   -0.6740  -10.8737   18.0482 C   0  0  0  0  0  0  0  0  0  0  0  0
    5.6751  -10.5870   29.7637 O   0  0  0  0  0  0  0  0  0  0  0  0
    1.7612   -5.6483   26.7172 C   0  0  0  0  0  0  0  0  0  0  0  0
    0.2221   -9.8326   17.4055 C   0  0  0  0  0  0  0  0  0  0  0  0
    4.3850   -9.0730   28.6745 C   0  0  0  0  0  0  0  0  0  0  0  0
  1  7  4  0
  1 22  4  0
  2 17  4  0
  2 20  4  0
  2 28  4  0
  3  6  1  0
  3 19  1  0
  4 19  1  0
  4 26  1  0
  5 17  4  0
  5 18  4  0
  6 20  1  0
  6 26  1  0
  7 24  4  0
  8 15  4  0
  8 24  4  0
  9 14  4  0
  9 21  4  0
 10 12  4  0
 10 27  4  0
 11 12  4  0
 11 23  4  0
 13 23  4  0
 13 27  4  0
 14 20  4  0
 15 22  4  0
 16 18  4  0
 16 25  2  0
 16 28  4  0
 21 28  4  0
 24 27  1  0
M  END
$$$$

 Created by Python create_sdf_string function

 28 31  0  0  0  0  0  0  0  0999 V2000
   -1.0054  -13.0622   19.1198 C   0  0  0  0  0  0  0  0  0  0  0  0
    3.1478   -8.5360   28.5161 C   0  0  0  0  0  0  0  0  0  0  0  0
    0.5798   -7.1906   27.9330 C   0  0  0  0  0  0  0  0  0  0  0  0
    0.3978   -5.1561   26.6955 C   0  0  0  0  0  0  0  0  0  0  0  0
    2.3063  -10.0533   30.0125 C   0  0  0  0  0  0  0  0  0  0  0  0
    1.8591   -6.8254   27.4685 N   0  0  0  0  0  0  0  0  0  0  0  0
   -0.2167  -12.1055   18.5568 C   0  0  0  0  0  0  0  0  0  0  0  0
   -2.0661  -10.6994   18.1916 C   0  0  0  0  0  0  0  0  0  0  0  0
    5.2703   -7.5691   27.1123 C   0  0  0  0  0  0  0  0  0  0  0  0
    1.6204   -9.9887   17.2935 C   0  0  0  0  0  0  0  0  0  0  0  0
    1.8931   -7.9265   16.2047 C   0  0  0  0  0  0  0  0  0  0  0  0
    2.4396   -9.0801   16.7132 C   0  0  0  0  0  0  0  0  0  0  0  0
   -0.2575   -8.6234   16.8582 C   0  0  0  0  0  0  0  0  0  0  0  0
    4.0614   -7.0367   27.0106 N   0  0  0  0  0  0  0  0  0  0  0  0
   -2.9133  -11.6279   18.7578 C   0  0  0  0  0  0  0  0  0  0  0  0
    4.5688  -10.1291   29.5758 C   0  0  0  0  0  0  0  0  0  0  0  0
    2.1008   -9.0410   29.1852 N   0  0  0  0  0  0  0  0  0  0  0  0
    3.4829  -10.5697   30.2091 N   0  0  0  0  0  0  0  0  0  0  0  0
   -0.3363   -6.1172   27.5628 C   0  0  0  0  0  0  0  0  0  0  0  0
    3.0331   -7.4400   27.6362 C   0  0  0  0  0  0  0  0  0  0  0  0
    5.4553   -8.5933   27.9644 C   0  0  0  0  0  0  0  0  0  0  0  0
   -2.3870  -12.8440   19.2512 C   0  0  0  0  0  0  0  0  0  0  0  0
    0.5331   -7.6964   16.2751 C   0  0  0  0  0  0  0  0  0  0  0  0
   -0.6740  -10.8737   18.0482 C   0  0  0  0  0  0  0  0  0  0  0  0
    5.6751  -10.5870   29.7637 O   0  0  0  0  0  0  0  0  0  0  0  0
    1.7612   -5.6483   26.7172 C   0  0  0  0  0  0  0  0  0  0  0  0
    0.2221   -9.8326   17.4055 C   0  0  0  0  0  0  0  0  0  0  0  0
    4.3850   -9.0730   28.6745 C   0  0  0  0  0  0  0  0  0  0  0  0
  1  7  4  0
  1 22  4  0
  2 17  4  0
  2 20  4  0
  2 28  4  0
  3  6  1  0
  3 19  1  0
  4 19  1  0
  4 26  1  0
  5 17  4  0
  5 18  4  0
  6 20  1  0
  6 26  1  0
  7 24  4  0
  8 15  4  0
  8 24  4  0
  9 14  4  0
  9 21  4  0
 10 12  4  0
 10 27  4  0
 11 12  4  0
 11 23  4  0
 13 23  4  0
 13 27  4  0
 14 20  4  0
 15 22  4  0
 16 18  4  0
 16 25  2  0
 16 28  4  0
 21 28  4  0
 24 27  1  0
M  END
$$$$

 Created by Python create_sdf_string function

 28 31  0  0  0  0  0  0  0  0999 V2000
   -1.0054  -13.0622   19.1198 C   0  0  0  0  0  0  0  0  0  0  0  0
    3.1478   -8.5360   28.5161 C   0  0  0  0  0  0  0  0  0  0  0  0
    0.5798   -7.1906   27.9330 C   0  0  0  0  0  0  0  0  0  0  0  0
    0.3978   -5.1561   26.6955 C   0  0  0  0  0  0  0  0  0  0  0  0
    2.3063  -10.0533   30.0125 C   0  0  0  0  0  0  0  0  0  0  0  0
    1.8591   -6.8254   27.4685 N   0  0  0  0  0  0  0  0  0  0  0  0
   -0.2167  -12.1055   18.5568 C   0  0  0  0  0  0  0  0  0  0  0  0
   -2.0661  -10.6994   18.1916 C   0  0  0  0  0  0  0  0  0  0  0  0
    5.2703   -7.5691   27.1123 C   0  0  0  0  0  0  0  0  0  0  0  0
    1.6204   -9.9887   17.2935 C   0  0  0  0  0  0  0  0  0  0  0  0
    1.8931   -7.9265   16.2047 C   0  0  0  0  0  0  0  0  0  0  0  0
    2.4396   -9.0801   16.7132 C   0  0  0  0  0  0  0  0  0  0  0  0
   -0.2575   -8.6234   16.8582 C   0  0  0  0  0  0  0  0  0  0  0  0
    4.0614   -7.0367   27.0106 N   0  0  0  0  0  0  0  0  0  0  0  0
   -2.9133  -11.6279   18.7578 C   0  0  0  0  0  0  0  0  0  0  0  0
    4.5688  -10.1291   29.5758 C   0  0  0  0  0  0  0  0  0  0  0  0
    2.1008   -9.0410   29.1852 N   0  0  0  0  0  0  0  0  0  0  0  0
    3.4829  -10.5697   30.2091 N   0  0  0  0  0  0  0  0  0  0  0  0
   -0.3363   -6.1172   27.5628 C   0  0  0  0  0  0  0  0  0  0  0  0
    3.0331   -7.4400   27.6362 C   0  0  0  0  0  0  0  0  0  0  0  0
    5.4553   -8.5933   27.9644 C   0  0  0  0  0  0  0  0  0  0  0  0
   -2.3870  -12.8440   19.2512 C   0  0  0  0  0  0  0  0  0  0  0  0
    0.5331   -7.6964   16.2751 C   0  0  0  0  0  0  0  0  0  0  0  0
   -0.6740  -10.8737   18.0482 C   0  0  0  0  0  0  0  0  0  0  0  0
    5.6751  -10.5870   29.7637 O   0  0  0  0  0  0  0  0  0  0  0  0
    1.7612   -5.6483   26.7172 C   0  0  0  0  0  0  0  0  0  0  0  0
    0.2221   -9.8326   17.4055 C   0  0  0  0  0  0  0  0  0  0  0  0
    4.3850   -9.0730   28.6745 C   0  0  0  0  0  0  0  0  0  0  0  0
  1  7  4  0
  1 22  4  0
  2 17  4  0
  2 20  4  0
  2 28  4  0
  3  6  1  0
  3 19  1  0
  4 19  1  0
  4 26  1  0
  5 17  4  0
  5 18  4  0
  6 20  1  0
  6 26  1  0
  7 24  4  0
  8 15  4  0
  8 24  4  0
  9 14  4  0
  9 21  4  0
 10 12  4  0
 10 27  4  0
 11 12  4  0
 11 23  4  0
 13 23  4  0
 13 27  4  0
 14 20  4  0
 15 22  4  0
 16 18  4  0
 16 25  2  0
 16 28  4  0
 21 28  4  0
 24 27  1  0
M  END
$$$$

 Created by Python create_sdf_string function

 28 31  0  0  0  0  0  0  0  0999 V2000
   -1.0054  -13.0622   19.1198 C   0  0  0  0  0  0  0  0  0  0  0  0
    3.1478   -8.5360   28.5161 C   0  0  0  0  0  0  0  0  0  0  0  0
    0.5798   -7.1906   27.9330 C   0  0  0  0  0  0  0  0  0  0  0  0
    0.3978   -5.1561   26.6955 C   0  0  0  0  0  0  0  0  0  0  0  0
    2.3063  -10.0533   30.0125 C   0  0  0  0  0  0  0  0  0  0  0  0
    1.8591   -6.8254   27.4685 N   0  0  0  0  0  0  0  0  0  0  0  0
   -0.2167  -12.1055   18.5568 C   0  0  0  0  0  0  0  0  0  0  0  0
   -2.0661  -10.6994   18.1916 C   0  0  0  0  0  0  0  0  0  0  0  0
    5.2703   -7.5691   27.1123 C   0  0  0  0  0  0  0  0  0  0  0  0
    1.6204   -9.9887   17.2935 C   0  0  0  0  0  0  0  0  0  0  0  0
    1.8931   -7.9265   16.2047 C   0  0  0  0  0  0  0  0  0  0  0  0
    2.4396   -9.0801   16.7132 C   0  0  0  0  0  0  0  0  0  0  0  0
   -0.2575   -8.6234   16.8582 C   0  0  0  0  0  0  0  0  0  0  0  0
    4.0614   -7.0367   27.0106 N   0  0  0  0  0  0  0  0  0  0  0  0
   -2.9133  -11.6279   18.7578 C   0  0  0  0  0  0  0  0  0  0  0  0
    4.5688  -10.1291   29.5758 C   0  0  0  0  0  0  0  0  0  0  0  0
    2.1008   -9.0410   29.1852 N   0  0  0  0  0  0  0  0  0  0  0  0
    3.4829  -10.5697   30.2091 N   0  0  0  0  0  0  0  0  0  0  0  0
   -0.3363   -6.1172   27.5628 C   0  0  0  0  0  0  0  0  0  0  0  0
    3.0331   -7.4400   27.6362 C   0  0  0  0  0  0  0  0  0  0  0  0
    5.4553   -8.5933   27.9644 C   0  0  0  0  0  0  0  0  0  0  0  0
   -2.3870  -12.8440   19.2512 C   0  0  0  0  0  0  0  0  0  0  0  0
    0.5331   -7.6964   16.2751 C   0  0  0  0  0  0  0  0  0  0  0  0
   -0.6740  -10.8737   18.0482 C   0  0  0  0  0  0  0  0  0  0  0  0
    5.6751  -10.5870   29.7637 O   0  0  0  0  0  0  0  0  0  0  0  0
    1.7612   -5.6483   26.7172 C   0  0  0  0  0  0  0  0  0  0  0  0
    0.2221   -9.8326   17.4055 C   0  0  0  0  0  0  0  0  0  0  0  0
    4.3850   -9.0730   28.6745 C   0  0  0  0  0  0  0  0  0  0  0  0
  1  7  4  0
  1 22  4  0
  2 17  4  0
  2 20  4  0
  2 28  4  0
  3  6  1  0
  3 19  1  0
  4 19  1  0
  4 26  1  0
  5 17  4  0
  5 18  4  0
  6 20  1  0
  6 26  1  0
  7 24  4  0
  8 15  4  0
  8 24  4  0
  9 14  4  0
  9 21  4  0
 10 12  4  0
 10 27  4  0
 11 12  4  0
 11 23  4  0
 13 23  4  0
 13 27  4  0
 14 20  4  0
 15 22  4  0
 16 18  4  0
 16 25  2  0
 16 28  4  0
 21 28  4  0
 24 27  1  0
M  END
$$$$

 Created by Python create_sdf_string function

 28 31  0  0  0  0  0  0  0  0999 V2000
   -1.0054  -13.0622   19.1198 C   0  0  0  0  0  0  0  0  0  0  0  0
    3.1478   -8.5360   28.5161 C   0  0  0  0  0  0  0  0  0  0  0  0
    0.5798   -7.1906   27.9330 C   0  0  0  0  0  0  0  0  0  0  0  0
    0.3978   -5.1561   26.6955 C   0  0  0  0  0  0  0  0  0  0  0  0
    2.3063  -10.0533   30.0125 C   0  0  0  0  0  0  0  0  0  0  0  0
    1.8591   -6.8254   27.4685 N   0  0  0  0  0  0  0  0  0  0  0  0
   -0.2167  -12.1055   18.5568 C   0  0  0  0  0  0  0  0  0  0  0  0
   -2.0661  -10.6994   18.1916 C   0  0  0  0  0  0  0  0  0  0  0  0
    5.2703   -7.5691   27.1123 C   0  0  0  0  0  0  0  0  0  0  0  0
    1.6204   -9.9887   17.2935 C   0  0  0  0  0  0  0  0  0  0  0  0
    1.8931   -7.9265   16.2047 C   0  0  0  0  0  0  0  0  0  0  0  0
    2.4396   -9.0801   16.7132 C   0  0  0  0  0  0  0  0  0  0  0  0
   -0.2575   -8.6234   16.8582 C   0  0  0  0  0  0  0  0  0  0  0  0
    4.0614   -7.0367   27.0106 N   0  0  0  0  0  0  0  0  0  0  0  0
   -2.9133  -11.6279   18.7578 C   0  0  0  0  0  0  0  0  0  0  0  0
    4.5688  -10.1291   29.5758 C   0  0  0  0  0  0  0  0  0  0  0  0
    2.1008   -9.0410   29.1852 N   0  0  0  0  0  0  0  0  0  0  0  0
    3.4829  -10.5697   30.2091 N   0  0  0  0  0  0  0  0  0  0  0  0
   -0.3363   -6.1172   27.5628 C   0  0  0  0  0  0  0  0  0  0  0  0
    3.0331   -7.4400   27.6362 C   0  0  0  0  0  0  0  0  0  0  0  0
    5.4553   -8.5933   27.9644 C   0  0  0  0  0  0  0  0  0  0  0  0
   -2.3870  -12.8440   19.2512 C   0  0  0  0  0  0  0  0  0  0  0  0
    0.5331   -7.6964   16.2751 C   0  0  0  0  0  0  0  0  0  0  0  0
   -0.6740  -10.8737   18.0482 C   0  0  0  0  0  0  0  0  0  0  0  0
    5.6751  -10.5870   29.7637 O   0  0  0  0  0  0  0  0  0  0  0  0
    1.7612   -5.6483   26.7172 C   0  0  0  0  0  0  0  0  0  0  0  0
    0.2221   -9.8326   17.4055 C   0  0  0  0  0  0  0  0  0  0  0  0
    4.3850   -9.0730   28.6745 C   0  0  0  0  0  0  0  0  0  0  0  0
  1  7  4  0
  1 22  4  0
  2 17  4  0
  2 20  4  0
  2 28  4  0
  3  6  1  0
  3 19  1  0
  4 19  1  0
  4 26  1  0
  5 17  4  0
  5 18  4  0
  6 20  1  0
  6 26  1  0
  7 24  4  0
  8 15  4  0
  8 24  4  0
  9 14  4  0
  9 21  4  0
 10 12  4  0
 10 27  4  0
 11 12  4  0
 11 23  4  0
 13 23  4  0
 13 27  4  0
 14 20  4  0
 15 22  4  0
 16 18  4  0
 16 25  2  0
 16 28  4  0
 21 28  4  0
 24 27  1  0
M  END
$$$$

 Created by Python create_sdf_string function

 28 31  0  0  0  0  0  0  0  0999 V2000
   -1.0054  -13.0622   19.1198 C   0  0  0  0  0  0  0  0  0  0  0  0
    3.1478   -8.5360   28.5161 C   0  0  0  0  0  0  0  0  0  0  0  0
    0.5798   -7.1906   27.9330 C   0  0  0  0  0  0  0  0  0  0  0  0
    0.3978   -5.1561   26.6955 C   0  0  0  0  0  0  0  0  0  0  0  0
    2.3063  -10.0533   30.0125 C   0  0  0  0  0  0  0  0  0  0  0  0
    1.8591   -6.8254   27.4685 N   0  0  0  0  0  0  0  0  0  0  0  0
   -0.2167  -12.1055   18.5568 C   0  0  0  0  0  0  0  0  0  0  0  0
   -2.0661  -10.6994   18.1916 C   0  0  0  0  0  0  0  0  0  0  0  0
    5.2703   -7.5691   27.1123 C   0  0  0  0  0  0  0  0  0  0  0  0
    1.6204   -9.9887   17.2935 C   0  0  0  0  0  0  0  0  0  0  0  0
    1.8931   -7.9265   16.2047 C   0  0  0  0  0  0  0  0  0  0  0  0
    2.4396   -9.0801   16.7132 C   0  0  0  0  0  0  0  0  0  0  0  0
   -0.2575   -8.6234   16.8582 C   0  0  0  0  0  0  0  0  0  0  0  0
    4.0614   -7.0367   27.0106 N   0  0  0  0  0  0  0  0  0  0  0  0
   -2.9133  -11.6279   18.7578 C   0  0  0  0  0  0  0  0  0  0  0  0
    4.5688  -10.1291   29.5758 C   0  0  0  0  0  0  0  0  0  0  0  0
    2.1008   -9.0410   29.1852 N   0  0  0  0  0  0  0  0  0  0  0  0
    3.4829  -10.5697   30.2091 N   0  0  0  0  0  0  0  0  0  0  0  0
   -0.3363   -6.1172   27.5628 C   0  0  0  0  0  0  0  0  0  0  0  0
    3.0331   -7.4400   27.6362 C   0  0  0  0  0  0  0  0  0  0  0  0
    5.4553   -8.5933   27.9644 C   0  0  0  0  0  0  0  0  0  0  0  0
   -2.3870  -12.8440   19.2512 C   0  0  0  0  0  0  0  0  0  0  0  0
    0.5331   -7.6964   16.2751 C   0  0  0  0  0  0  0  0  0  0  0  0
   -0.6740  -10.8737   18.0482 C   0  0  0  0  0  0  0  0  0  0  0  0
    5.6751  -10.5870   29.7637 O   0  0  0  0  0  0  0  0  0  0  0  0
    1.7612   -5.6483   26.7172 C   0  0  0  0  0  0  0  0  0  0  0  0
    0.2221   -9.8326   17.4055 C   0  0  0  0  0  0  0  0  0  0  0  0
    4.3850   -9.0730   28.6745 C   0  0  0  0  0  0  0  0  0  0  0  0
  1  7  4  0
  1 22  4  0
  2 17  4  0
  2 20  4  0
  2 28  4  0
  3  6  1  0
  3 19  1  0
  4 19  1  0
  4 26  1  0
  5 17  4  0
  5 18  4  0
  6 20  1  0
  6 26  1  0
  7 24  4  0
  8 15  4  0
  8 24  4  0
  9 14  4  0
  9 21  4  0
 10 12  4  0
 10 27  4  0
 11 12  4  0
 11 23  4  0
 13 23  4  0
 13 27  4  0
 14 20  4  0
 15 22  4  0
 16 18  4  0
 16 25  2  0
 16 28  4  0
 21 28  4  0
 24 27  1  0
M  END
$$$$

 Created by Python create_sdf_string function

 28 31  0  0  0  0  0  0  0  0999 V2000
   -1.0054  -13.0622   19.1198 C   0  0  0  0  0  0  0  0  0  0  0  0
    3.1478   -8.5360   28.5161 C   0  0  0  0  0  0  0  0  0  0  0  0
    0.5798   -7.1906   27.9330 C   0  0  0  0  0  0  0  0  0  0  0  0
    0.3978   -5.1561   26.6955 C   0  0  0  0  0  0  0  0  0  0  0  0
    2.3063  -10.0533   30.0125 C   0  0  0  0  0  0  0  0  0  0  0  0
    1.8591   -6.8254   27.4685 N   0  0  0  0  0  0  0  0  0  0  0  0
   -0.2167  -12.1055   18.5568 C   0  0  0  0  0  0  0  0  0  0  0  0
   -2.0661  -10.6994   18.1916 C   0  0  0  0  0  0  0  0  0  0  0  0
    5.2703   -7.5691   27.1123 C   0  0  0  0  0  0  0  0  0  0  0  0
    1.6204   -9.9887   17.2935 C   0  0  0  0  0  0  0  0  0  0  0  0
    1.8931   -7.9265   16.2047 C   0  0  0  0  0  0  0  0  0  0  0  0
    2.4396   -9.0801   16.7132 C   0  0  0  0  0  0  0  0  0  0  0  0
   -0.2575   -8.6234   16.8582 C   0  0  0  0  0  0  0  0  0  0  0  0
    4.0614   -7.0367   27.0106 N   0  0  0  0  0  0  0  0  0  0  0  0
   -2.9133  -11.6279   18.7578 C   0  0  0  0  0  0  0  0  0  0  0  0
    4.5688  -10.1291   29.5758 C   0  0  0  0  0  0  0  0  0  0  0  0
    2.1008   -9.0410   29.1852 N   0  0  0  0  0  0  0  0  0  0  0  0
    3.4829  -10.5697   30.2091 N   0  0  0  0  0  0  0  0  0  0  0  0
   -0.3363   -6.1172   27.5628 C   0  0  0  0  0  0  0  0  0  0  0  0
    3.0331   -7.4400   27.6362 C   0  0  0  0  0  0  0  0  0  0  0  0
    5.4553   -8.5933   27.9644 C   0  0  0  0  0  0  0  0  0  0  0  0
   -2.3870  -12.8440   19.2512 C   0  0  0  0  0  0  0  0  0  0  0  0
    0.5331   -7.6964   16.2751 C   0  0  0  0  0  0  0  0  0  0  0  0
   -0.6740  -10.8737   18.0482 C   0  0  0  0  0  0  0  0  0  0  0  0
    5.6751  -10.5870   29.7637 O   0  0  0  0  0  0  0  0  0  0  0  0
    1.7612   -5.6483   26.7172 C   0  0  0  0  0  0  0  0  0  0  0  0
    0.2221   -9.8326   17.4055 C   0  0  0  0  0  0  0  0  0  0  0  0
    4.3850   -9.0730   28.6745 C   0  0  0  0  0  0  0  0  0  0  0  0
  1  7  4  0
  1 22  4  0
  2 17  4  0
  2 20  4  0
  2 28  4  0
  3  6  1  0
  3 19  1  0
  4 19  1  0
  4 26  1  0
  5 17  4  0
  5 18  4  0
  6 20  1  0
  6 26  1  0
  7 24  4  0
  8 15  4  0
  8 24  4  0
  9 14  4  0
  9 21  4  0
 10 12  4  0
 10 27  4  0
 11 12  4  0
 11 23  4  0
 13 23  4  0
 13 27  4  0
 14 20  4  0
 15 22  4  0
 16 18  4  0
 16 25  2  0
 16 28  4  0
 21 28  4  0
 24 27  1  0
M  END
$$$$

 Created by Python create_sdf_string function

 28 31  0  0  0  0  0  0  0  0999 V2000
   -1.0054  -13.0622   19.1198 C   0  0  0  0  0  0  0  0  0  0  0  0
    3.1478   -8.5360   28.5161 C   0  0  0  0  0  0  0  0  0  0  0  0
    0.5798   -7.1906   27.9330 C   0  0  0  0  0  0  0  0  0  0  0  0
    0.3978   -5.1561   26.6955 C   0  0  0  0  0  0  0  0  0  0  0  0
    2.3063  -10.0533   30.0125 C   0  0  0  0  0  0  0  0  0  0  0  0
    1.8591   -6.8254   27.4685 N   0  0  0  0  0  0  0  0  0  0  0  0
   -0.2167  -12.1055   18.5568 C   0  0  0  0  0  0  0  0  0  0  0  0
   -2.0661  -10.6994   18.1916 C   0  0  0  0  0  0  0  0  0  0  0  0
    5.2703   -7.5691   27.1123 C   0  0  0  0  0  0  0  0  0  0  0  0
    1.6204   -9.9887   17.2935 C   0  0  0  0  0  0  0  0  0  0  0  0
    1.8931   -7.9265   16.2047 C   0  0  0  0  0  0  0  0  0  0  0  0
    2.4396   -9.0801   16.7132 C   0  0  0  0  0  0  0  0  0  0  0  0
   -0.2575   -8.6234   16.8582 C   0  0  0  0  0  0  0  0  0  0  0  0
    4.0614   -7.0367   27.0106 N   0  0  0  0  0  0  0  0  0  0  0  0
   -2.9133  -11.6279   18.7578 C   0  0  0  0  0  0  0  0  0  0  0  0
    4.5688  -10.1291   29.5758 C   0  0  0  0  0  0  0  0  0  0  0  0
    2.1008   -9.0410   29.1852 N   0  0  0  0  0  0  0  0  0  0  0  0
    3.4829  -10.5697   30.2091 N   0  0  0  0  0  0  0  0  0  0  0  0
   -0.3363   -6.1172   27.5628 C   0  0  0  0  0  0  0  0  0  0  0  0
    3.0331   -7.4400   27.6362 C   0  0  0  0  0  0  0  0  0  0  0  0
    5.4553   -8.5933   27.9644 C   0  0  0  0  0  0  0  0  0  0  0  0
   -2.3870  -12.8440   19.2512 C   0  0  0  0  0  0  0  0  0  0  0  0
    0.5331   -7.6964   16.2751 C   0  0  0  0  0  0  0  0  0  0  0  0
   -0.6740  -10.8737   18.0482 C   0  0  0  0  0  0  0  0  0  0  0  0
    5.6751  -10.5870   29.7637 O   0  0  0  0  0  0  0  0  0  0  0  0
    1.7612   -5.6483   26.7172 C   0  0  0  0  0  0  0  0  0  0  0  0
    0.2221   -9.8326   17.4055 C   0  0  0  0  0  0  0  0  0  0  0  0
    4.3850   -9.0730   28.6745 C   0  0  0  0  0  0  0  0  0  0  0  0
  1  7  4  0
  1 22  4  0
  2 17  4  0
  2 20  4  0
  2 28  4  0
  3  6  1  0
  3 19  1  0
  4 19  1  0
  4 26  1  0
  5 17  4  0
  5 18  4  0
  6 20  1  0
  6 26  1  0
  7 24  4  0
  8 15  4  0
  8 24  4  0
  9 14  4  0
  9 21  4  0
 10 12  4  0
 10 27  4  0
 11 12  4  0
 11 23  4  0
 13 23  4  0
 13 27  4  0
 14 20  4  0
 15 22  4  0
 16 18  4  0
 16 25  2  0
 16 28  4  0
 21 28  4  0
 24 27  1  0
M  END
$$$$

 Created by Python create_sdf_string function

 28 31  0  0  0  0  0  0  0  0999 V2000
   -1.0054  -13.0622   19.1198 C   0  0  0  0  0  0  0  0  0  0  0  0
    3.1478   -8.5360   28.5161 C   0  0  0  0  0  0  0  0  0  0  0  0
    0.5798   -7.1906   27.9330 C   0  0  0  0  0  0  0  0  0  0  0  0
    0.3978   -5.1561   26.6955 C   0  0  0  0  0  0  0  0  0  0  0  0
    2.3063  -10.0533   30.0125 C   0  0  0  0  0  0  0  0  0  0  0  0
    1.8591   -6.8254   27.4685 N   0  0  0  0  0  0  0  0  0  0  0  0
   -0.2167  -12.1055   18.5568 C   0  0  0  0  0  0  0  0  0  0  0  0
   -2.0661  -10.6994   18.1916 C   0  0  0  0  0  0  0  0  0  0  0  0
    5.2703   -7.5691   27.1123 C   0  0  0  0  0  0  0  0  0  0  0  0
    1.6204   -9.9887   17.2935 C   0  0  0  0  0  0  0  0  0  0  0  0
    1.8931   -7.9265   16.2047 C   0  0  0  0  0  0  0  0  0  0  0  0
    2.4396   -9.0801   16.7132 C   0  0  0  0  0  0  0  0  0  0  0  0
   -0.2575   -8.6234   16.8582 C   0  0  0  0  0  0  0  0  0  0  0  0
    4.0614   -7.0367   27.0106 N   0  0  0  0  0  0  0  0  0  0  0  0
   -2.9133  -11.6279   18.7578 C   0  0  0  0  0  0  0  0  0  0  0  0
    4.5688  -10.1291   29.5758 C   0  0  0  0  0  0  0  0  0  0  0  0
    2.1008   -9.0410   29.1852 N   0  0  0  0  0  0  0  0  0  0  0  0
    3.4829  -10.5697   30.2091 N   0  0  0  0  0  0  0  0  0  0  0  0
   -0.3363   -6.1172   27.5628 C   0  0  0  0  0  0  0  0  0  0  0  0
    3.0331   -7.4400   27.6362 C   0  0  0  0  0  0  0  0  0  0  0  0
    5.4553   -8.5933   27.9644 C   0  0  0  0  0  0  0  0  0  0  0  0
   -2.3870  -12.8440   19.2512 C   0  0  0  0  0  0  0  0  0  0  0  0
    0.5331   -7.6964   16.2751 C   0  0  0  0  0  0  0  0  0  0  0  0
   -0.6740  -10.8737   18.0482 C   0  0  0  0  0  0  0  0  0  0  0  0
    5.6751  -10.5870   29.7637 O   0  0  0  0  0  0  0  0  0  0  0  0
    1.7612   -5.6483   26.7172 C   0  0  0  0  0  0  0  0  0  0  0  0
    0.2221   -9.8326   17.4055 C   0  0  0  0  0  0  0  0  0  0  0  0
    4.3850   -9.0730   28.6745 C   0  0  0  0  0  0  0  0  0  0  0  0
  1  7  4  0
  1 22  4  0
  2 17  4  0
  2 20  4  0
  2 28  4  0
  3  6  1  0
  3 19  1  0
  4 19  1  0
  4 26  1  0
  5 17  4  0
  5 18  4  0
  6 20  1  0
  6 26  1  0
  7 24  4  0
  8 15  4  0
  8 24  4  0
  9 14  4  0
  9 21  4  0
 10 12  4  0
 10 27  4  0
 11 12  4  0
 11 23  4  0
 13 23  4  0
 13 27  4  0
 14 20  4  0
 15 22  4  0
 16 18  4  0
 16 25  2  0
 16 28  4  0
 21 28  4  0
 24 27  1  0
M  END
$$$$

 Created by Python create_sdf_string function

 28 31  0  0  0  0  0  0  0  0999 V2000
   -1.0054  -13.0622   19.1198 C   0  0  0  0  0  0  0  0  0  0  0  0
    3.1478   -8.5360   28.5161 C   0  0  0  0  0  0  0  0  0  0  0  0
    0.5798   -7.1906   27.9330 C   0  0  0  0  0  0  0  0  0  0  0  0
    0.3978   -5.1561   26.6955 C   0  0  0  0  0  0  0  0  0  0  0  0
    2.3063  -10.0533   30.0125 C   0  0  0  0  0  0  0  0  0  0  0  0
    1.8591   -6.8254   27.4685 N   0  0  0  0  0  0  0  0  0  0  0  0
   -0.2167  -12.1055   18.5568 C   0  0  0  0  0  0  0  0  0  0  0  0
   -2.0661  -10.6994   18.1916 C   0  0  0  0  0  0  0  0  0  0  0  0
    5.2703   -7.5691   27.1123 C   0  0  0  0  0  0  0  0  0  0  0  0
    1.6204   -9.9887   17.2935 C   0  0  0  0  0  0  0  0  0  0  0  0
    1.8931   -7.9265   16.2047 C   0  0  0  0  0  0  0  0  0  0  0  0
    2.4396   -9.0801   16.7132 C   0  0  0  0  0  0  0  0  0  0  0  0
   -0.2575   -8.6234   16.8582 C   0  0  0  0  0  0  0  0  0  0  0  0
    4.0614   -7.0367   27.0106 N   0  0  0  0  0  0  0  0  0  0  0  0
   -2.9133  -11.6279   18.7578 C   0  0  0  0  0  0  0  0  0  0  0  0
    4.5688  -10.1291   29.5758 C   0  0  0  0  0  0  0  0  0  0  0  0
    2.1008   -9.0410   29.1852 N   0  0  0  0  0  0  0  0  0  0  0  0
    3.4829  -10.5697   30.2091 N   0  0  0  0  0  0  0  0  0  0  0  0
   -0.3363   -6.1172   27.5628 C   0  0  0  0  0  0  0  0  0  0  0  0
    3.0331   -7.4400   27.6362 C   0  0  0  0  0  0  0  0  0  0  0  0
    5.4553   -8.5933   27.9644 C   0  0  0  0  0  0  0  0  0  0  0  0
   -2.3870  -12.8440   19.2512 C   0  0  0  0  0  0  0  0  0  0  0  0
    0.5331   -7.6964   16.2751 C   0  0  0  0  0  0  0  0  0  0  0  0
   -0.6740  -10.8737   18.0482 C   0  0  0  0  0  0  0  0  0  0  0  0
    5.6751  -10.5870   29.7637 O   0  0  0  0  0  0  0  0  0  0  0  0
    1.7612   -5.6483   26.7172 C   0  0  0  0  0  0  0  0  0  0  0  0
    0.2221   -9.8326   17.4055 C   0  0  0  0  0  0  0  0  0  0  0  0
    4.3850   -9.0730   28.6745 C   0  0  0  0  0  0  0  0  0  0  0  0
  1  7  4  0
  1 22  4  0
  2 17  4  0
  2 20  4  0
  2 28  4  0
  3  6  1  0
  3 19  1  0
  4 19  1  0
  4 26  1  0
  5 17  4  0
  5 18  4  0
  6 20  1  0
  6 26  1  0
  7 24  4  0
  8 15  4  0
  8 24  4  0
  9 14  4  0
  9 21  4  0
 10 12  4  0
 10 27  4  0
 11 12  4  0
 11 23  4  0
 13 23  4  0
 13 27  4  0
 14 20  4  0
 15 22  4  0
 16 18  4  0
 16 25  2  0
 16 28  4  0
 21 28  4  0
 24 27  1  0
M  END
$$$$

 Created by Python create_sdf_string function

 28 31  0  0  0  0  0  0  0  0999 V2000
   -1.0054  -13.0622   19.1198 C   0  0  0  0  0  0  0  0  0  0  0  0
    3.1478   -8.5360   28.5161 C   0  0  0  0  0  0  0  0  0  0  0  0
    0.5798   -7.1906   27.9330 C   0  0  0  0  0  0  0  0  0  0  0  0
    0.3978   -5.1561   26.6955 C   0  0  0  0  0  0  0  0  0  0  0  0
    2.3063  -10.0533   30.0125 C   0  0  0  0  0  0  0  0  0  0  0  0
    1.8591   -6.8254   27.4685 N   0  0  0  0  0  0  0  0  0  0  0  0
   -0.2167  -12.1055   18.5568 C   0  0  0  0  0  0  0  0  0  0  0  0
   -2.0661  -10.6994   18.1916 C   0  0  0  0  0  0  0  0  0  0  0  0
    5.2703   -7.5691   27.1123 C   0  0  0  0  0  0  0  0  0  0  0  0
    1.6204   -9.9887   17.2935 C   0  0  0  0  0  0  0  0  0  0  0  0
    1.8931   -7.9265   16.2047 C   0  0  0  0  0  0  0  0  0  0  0  0
    2.4396   -9.0801   16.7132 C   0  0  0  0  0  0  0  0  0  0  0  0
   -0.2575   -8.6234   16.8582 C   0  0  0  0  0  0  0  0  0  0  0  0
    4.0614   -7.0367   27.0106 N   0  0  0  0  0  0  0  0  0  0  0  0
   -2.9133  -11.6279   18.7578 C   0  0  0  0  0  0  0  0  0  0  0  0
    4.5688  -10.1291   29.5758 C   0  0  0  0  0  0  0  0  0  0  0  0
    2.1008   -9.0410   29.1852 N   0  0  0  0  0  0  0  0  0  0  0  0
    3.4829  -10.5697   30.2091 N   0  0  0  0  0  0  0  0  0  0  0  0
   -0.3363   -6.1172   27.5628 C   0  0  0  0  0  0  0  0  0  0  0  0
    3.0331   -7.4400   27.6362 C   0  0  0  0  0  0  0  0  0  0  0  0
    5.4553   -8.5933   27.9644 C   0  0  0  0  0  0  0  0  0  0  0  0
   -2.3870  -12.8440   19.2512 C   0  0  0  0  0  0  0  0  0  0  0  0
    0.5331   -7.6964   16.2751 C   0  0  0  0  0  0  0  0  0  0  0  0
   -0.6740  -10.8737   18.0482 C   0  0  0  0  0  0  0  0  0  0  0  0
    5.6751  -10.5870   29.7637 O   0  0  0  0  0  0  0  0  0  0  0  0
    1.7612   -5.6483   26.7172 C   0  0  0  0  0  0  0  0  0  0  0  0
    0.2221   -9.8326   17.4055 C   0  0  0  0  0  0  0  0  0  0  0  0
    4.3850   -9.0730   28.6745 C   0  0  0  0  0  0  0  0  0  0  0  0
  1  7  4  0
  1 22  4  0
  2 17  4  0
  2 20  4  0
  2 28  4  0
  3  6  1  0
  3 19  1  0
  4 19  1  0
  4 26  1  0
  5 17  4  0
  5 18  4  0
  6 20  1  0
  6 26  1  0
  7 24  4  0
  8 15  4  0
  8 24  4  0
  9 14  4  0
  9 21  4  0
 10 12  4  0
 10 27  4  0
 11 12  4  0
 11 23  4  0
 13 23  4  0
 13 27  4  0
 14 20  4  0
 15 22  4  0
 16 18  4  0
 16 25  2  0
 16 28  4  0
 21 28  4  0
 24 27  1  0
M  END
$$$$

 Created by Python create_sdf_string function

 28 31  0  0  0  0  0  0  0  0999 V2000
   -1.0054  -13.0622   19.1198 C   0  0  0  0  0  0  0  0  0  0  0  0
    3.1478   -8.5360   28.5161 C   0  0  0  0  0  0  0  0  0  0  0  0
    0.5798   -7.1906   27.9330 C   0  0  0  0  0  0  0  0  0  0  0  0
    0.3978   -5.1561   26.6955 C   0  0  0  0  0  0  0  0  0  0  0  0
    2.3063  -10.0533   30.0125 C   0  0  0  0  0  0  0  0  0  0  0  0
    1.8591   -6.8254   27.4685 N   0  0  0  0  0  0  0  0  0  0  0  0
   -0.2167  -12.1055   18.5568 C   0  0  0  0  0  0  0  0  0  0  0  0
   -2.0661  -10.6994   18.1916 C   0  0  0  0  0  0  0  0  0  0  0  0
    5.2703   -7.5691   27.1123 C   0  0  0  0  0  0  0  0  0  0  0  0
    1.6204   -9.9887   17.2935 C   0  0  0  0  0  0  0  0  0  0  0  0
    1.8931   -7.9265   16.2047 C   0  0  0  0  0  0  0  0  0  0  0  0
    2.4396   -9.0801   16.7132 C   0  0  0  0  0  0  0  0  0  0  0  0
   -0.2575   -8.6234   16.8582 C   0  0  0  0  0  0  0  0  0  0  0  0
    4.0614   -7.0367   27.0106 N   0  0  0  0  0  0  0  0  0  0  0  0
   -2.9133  -11.6279   18.7578 C   0  0  0  0  0  0  0  0  0  0  0  0
    4.5688  -10.1291   29.5758 C   0  0  0  0  0  0  0  0  0  0  0  0
    2.1008   -9.0410   29.1852 N   0  0  0  0  0  0  0  0  0  0  0  0
    3.4829  -10.5697   30.2091 N   0  0  0  0  0  0  0  0  0  0  0  0
   -0.3363   -6.1172   27.5628 C   0  0  0  0  0  0  0  0  0  0  0  0
    3.0331   -7.4400   27.6362 C   0  0  0  0  0  0  0  0  0  0  0  0
    5.4553   -8.5933   27.9644 C   0  0  0  0  0  0  0  0  0  0  0  0
   -2.3870  -12.8440   19.2512 C   0  0  0  0  0  0  0  0  0  0  0  0
    0.5331   -7.6964   16.2751 C   0  0  0  0  0  0  0  0  0  0  0  0
   -0.6740  -10.8737   18.0482 C   0  0  0  0  0  0  0  0  0  0  0  0
    5.6751  -10.5870   29.7637 O   0  0  0  0  0  0  0  0  0  0  0  0
    1.7612   -5.6483   26.7172 C   0  0  0  0  0  0  0  0  0  0  0  0
    0.2221   -9.8326   17.4055 C   0  0  0  0  0  0  0  0  0  0  0  0
    4.3850   -9.0730   28.6745 C   0  0  0  0  0  0  0  0  0  0  0  0
  1  7  4  0
  1 22  4  0
  2 17  4  0
  2 20  4  0
  2 28  4  0
  3  6  1  0
  3 19  1  0
  4 19  1  0
  4 26  1  0
  5 17  4  0
  5 18  4  0
  6 20  1  0
  6 26  1  0
  7 24  4  0
  8 15  4  0
  8 24  4  0
  9 14  4  0
  9 21  4  0
 10 12  4  0
 10 27  4  0
 11 12  4  0
 11 23  4  0
 13 23  4  0
 13 27  4  0
 14 20  4  0
 15 22  4  0
 16 18  4  0
 16 25  2  0
 16 28  4  0
 21 28  4  0
 24 27  1  0
M  END
$$$$

 Created by Python create_sdf_string function

 28 31  0  0  0  0  0  0  0  0999 V2000
   -1.0054  -13.0622   19.1198 C   0  0  0  0  0  0  0  0  0  0  0  0
    3.1478   -8.5360   28.5161 C   0  0  0  0  0  0  0  0  0  0  0  0
    0.5798   -7.1906   27.9330 C   0  0  0  0  0  0  0  0  0  0  0  0
    0.3978   -5.1561   26.6955 C   0  0  0  0  0  0  0  0  0  0  0  0
    2.3063  -10.0533   30.0125 C   0  0  0  0  0  0  0  0  0  0  0  0
    1.8591   -6.8254   27.4685 N   0  0  0  0  0  0  0  0  0  0  0  0
   -0.2167  -12.1055   18.5568 C   0  0  0  0  0  0  0  0  0  0  0  0
   -2.0661  -10.6994   18.1916 C   0  0  0  0  0  0  0  0  0  0  0  0
    5.2703   -7.5691   27.1123 C   0  0  0  0  0  0  0  0  0  0  0  0
    1.6204   -9.9887   17.2935 C   0  0  0  0  0  0  0  0  0  0  0  0
    1.8931   -7.9265   16.2047 C   0  0  0  0  0  0  0  0  0  0  0  0
    2.4396   -9.0801   16.7132 C   0  0  0  0  0  0  0  0  0  0  0  0
   -0.2575   -8.6234   16.8582 C   0  0  0  0  0  0  0  0  0  0  0  0
    4.0614   -7.0367   27.0106 N   0  0  0  0  0  0  0  0  0  0  0  0
   -2.9133  -11.6279   18.7578 C   0  0  0  0  0  0  0  0  0  0  0  0
    4.5688  -10.1291   29.5758 C   0  0  0  0  0  0  0  0  0  0  0  0
    2.1008   -9.0410   29.1852 N   0  0  0  0  0  0  0  0  0  0  0  0
    3.4829  -10.5697   30.2091 N   0  0  0  0  0  0  0  0  0  0  0  0
   -0.3363   -6.1172   27.5628 C   0  0  0  0  0  0  0  0  0  0  0  0
    3.0331   -7.4400   27.6362 C   0  0  0  0  0  0  0  0  0  0  0  0
    5.4553   -8.5933   27.9644 C   0  0  0  0  0  0  0  0  0  0  0  0
   -2.3870  -12.8440   19.2512 C   0  0  0  0  0  0  0  0  0  0  0  0
    0.5331   -7.6964   16.2751 C   0  0  0  0  0  0  0  0  0  0  0  0
   -0.6740  -10.8737   18.0482 C   0  0  0  0  0  0  0  0  0  0  0  0
    5.6751  -10.5870   29.7637 O   0  0  0  0  0  0  0  0  0  0  0  0
    1.7612   -5.6483   26.7172 C   0  0  0  0  0  0  0  0  0  0  0  0
    0.2221   -9.8326   17.4055 C   0  0  0  0  0  0  0  0  0  0  0  0
    4.3850   -9.0730   28.6745 C   0  0  0  0  0  0  0  0  0  0  0  0
  1  7  4  0
  1 22  4  0
  2 17  4  0
  2 20  4  0
  2 28  4  0
  3  6  1  0
  3 19  1  0
  4 19  1  0
  4 26  1  0
  5 17  4  0
  5 18  4  0
  6 20  1  0
  6 26  1  0
  7 24  4  0
  8 15  4  0
  8 24  4  0
  9 14  4  0
  9 21  4  0
 10 12  4  0
 10 27  4  0
 11 12  4  0
 11 23  4  0
 13 23  4  0
 13 27  4  0
 14 20  4  0
 15 22  4  0
 16 18  4  0
 16 25  2  0
 16 28  4  0
 21 28  4  0
 24 27  1  0
M  END
$$$$

 Created by Python create_sdf_string function

 28 31  0  0  0  0  0  0  0  0999 V2000
   -1.0054  -13.0622   19.1198 C   0  0  0  0  0  0  0  0  0  0  0  0
    3.1478   -8.5360   28.5161 C   0  0  0  0  0  0  0  0  0  0  0  0
    0.5798   -7.1906   27.9330 C   0  0  0  0  0  0  0  0  0  0  0  0
    0.3978   -5.1561   26.6955 C   0  0  0  0  0  0  0  0  0  0  0  0
    2.3063  -10.0533   30.0125 C   0  0  0  0  0  0  0  0  0  0  0  0
    1.8591   -6.8254   27.4685 N   0  0  0  0  0  0  0  0  0  0  0  0
   -0.2167  -12.1055   18.5568 C   0  0  0  0  0  0  0  0  0  0  0  0
   -2.0661  -10.6994   18.1916 C   0  0  0  0  0  0  0  0  0  0  0  0
    5.2703   -7.5691   27.1123 C   0  0  0  0  0  0  0  0  0  0  0  0
    1.6204   -9.9887   17.2935 C   0  0  0  0  0  0  0  0  0  0  0  0
    1.8931   -7.9265   16.2047 C   0  0  0  0  0  0  0  0  0  0  0  0
    2.4396   -9.0801   16.7132 C   0  0  0  0  0  0  0  0  0  0  0  0
   -0.2575   -8.6234   16.8582 C   0  0  0  0  0  0  0  0  0  0  0  0
    4.0614   -7.0367   27.0106 N   0  0  0  0  0  0  0  0  0  0  0  0
   -2.9133  -11.6279   18.7578 C   0  0  0  0  0  0  0  0  0  0  0  0
    4.5688  -10.1291   29.5758 C   0  0  0  0  0  0  0  0  0  0  0  0
    2.1008   -9.0410   29.1852 N   0  0  0  0  0  0  0  0  0  0  0  0
    3.4829  -10.5697   30.2091 N   0  0  0  0  0  0  0  0  0  0  0  0
   -0.3363   -6.1172   27.5628 C   0  0  0  0  0  0  0  0  0  0  0  0
    3.0331   -7.4400   27.6362 C   0  0  0  0  0  0  0  0  0  0  0  0
    5.4553   -8.5933   27.9644 C   0  0  0  0  0  0  0  0  0  0  0  0
   -2.3870  -12.8440   19.2512 C   0  0  0  0  0  0  0  0  0  0  0  0
    0.5331   -7.6964   16.2751 C   0  0  0  0  0  0  0  0  0  0  0  0
   -0.6740  -10.8737   18.0482 C   0  0  0  0  0  0  0  0  0  0  0  0
    5.6751  -10.5870   29.7637 O   0  0  0  0  0  0  0  0  0  0  0  0
    1.7612   -5.6483   26.7172 C   0  0  0  0  0  0  0  0  0  0  0  0
    0.2221   -9.8326   17.4055 C   0  0  0  0  0  0  0  0  0  0  0  0
    4.3850   -9.0730   28.6745 C   0  0  0  0  0  0  0  0  0  0  0  0
  1  7  4  0
  1 22  4  0
  2 17  4  0
  2 20  4  0
  2 28  4  0
  3  6  1  0
  3 19  1  0
  4 19  1  0
  4 26  1  0
  5 17  4  0
  5 18  4  0
  6 20  1  0
  6 26  1  0
  7 24  4  0
  8 15  4  0
  8 24  4  0
  9 14  4  0
  9 21  4  0
 10 12  4  0
 10 27  4  0
 11 12  4  0
 11 23  4  0
 13 23  4  0
 13 27  4  0
 14 20  4  0
 15 22  4  0
 16 18  4  0
 16 25  2  0
 16 28  4  0
 21 28  4  0
 24 27  1  0
M  END
$$$$

 Created by Python create_sdf_string function

 28 31  0  0  0  0  0  0  0  0999 V2000
   -1.0054  -13.0622   19.1198 C   0  0  0  0  0  0  0  0  0  0  0  0
    3.1478   -8.5360   28.5161 C   0  0  0  0  0  0  0  0  0  0  0  0
    0.5798   -7.1906   27.9330 C   0  0  0  0  0  0  0  0  0  0  0  0
    0.3978   -5.1561   26.6955 C   0  0  0  0  0  0  0  0  0  0  0  0
    2.3063  -10.0533   30.0125 C   0  0  0  0  0  0  0  0  0  0  0  0
    1.8591   -6.8254   27.4685 N   0  0  0  0  0  0  0  0  0  0  0  0
   -0.2167  -12.1055   18.5568 C   0  0  0  0  0  0  0  0  0  0  0  0
   -2.0661  -10.6994   18.1916 C   0  0  0  0  0  0  0  0  0  0  0  0
    5.2703   -7.5691   27.1123 C   0  0  0  0  0  0  0  0  0  0  0  0
    1.6204   -9.9887   17.2935 C   0  0  0  0  0  0  0  0  0  0  0  0
    1.8931   -7.9265   16.2047 C   0  0  0  0  0  0  0  0  0  0  0  0
    2.4396   -9.0801   16.7132 C   0  0  0  0  0  0  0  0  0  0  0  0
   -0.2575   -8.6234   16.8582 C   0  0  0  0  0  0  0  0  0  0  0  0
    4.0614   -7.0367   27.0106 N   0  0  0  0  0  0  0  0  0  0  0  0
   -2.9133  -11.6279   18.7578 C   0  0  0  0  0  0  0  0  0  0  0  0
    4.5688  -10.1291   29.5758 C   0  0  0  0  0  0  0  0  0  0  0  0
    2.1008   -9.0410   29.1852 N   0  0  0  0  0  0  0  0  0  0  0  0
    3.4829  -10.5697   30.2091 N   0  0  0  0  0  0  0  0  0  0  0  0
   -0.3363   -6.1172   27.5628 C   0  0  0  0  0  0  0  0  0  0  0  0
    3.0331   -7.4400   27.6362 C   0  0  0  0  0  0  0  0  0  0  0  0
    5.4553   -8.5933   27.9644 C   0  0  0  0  0  0  0  0  0  0  0  0
   -2.3870  -12.8440   19.2512 C   0  0  0  0  0  0  0  0  0  0  0  0
    0.5331   -7.6964   16.2751 C   0  0  0  0  0  0  0  0  0  0  0  0
   -0.6740  -10.8737   18.0482 C   0  0  0  0  0  0  0  0  0  0  0  0
    5.6751  -10.5870   29.7637 O   0  0  0  0  0  0  0  0  0  0  0  0
    1.7612   -5.6483   26.7172 C   0  0  0  0  0  0  0  0  0  0  0  0
    0.2221   -9.8326   17.4055 C   0  0  0  0  0  0  0  0  0  0  0  0
    4.3850   -9.0730   28.6745 C   0  0  0  0  0  0  0  0  0  0  0  0
  1  7  4  0
  1 22  4  0
  2 17  4  0
  2 20  4  0
  2 28  4  0
  3  6  1  0
  3 19  1  0
  4 19  1  0
  4 26  1  0
  5 17  4  0
  5 18  4  0
  6 20  1  0
  6 26  1  0
  7 24  4  0
  8 15  4  0
  8 24  4  0
  9 14  4  0
  9 21  4  0
 10 12  4  0
 10 27  4  0
 11 12  4  0
 11 23  4  0
 13 23  4  0
 13 27  4  0
 14 20  4  0
 15 22  4  0
 16 18  4  0
 16 25  2  0
 16 28  4  0
 21 28  4  0
 24 27  1  0
M  END
$$$$

 Created by Python create_sdf_string function

 28 31  0  0  0  0  0  0  0  0999 V2000
   -1.0054  -13.0622   19.1198 C   0  0  0  0  0  0  0  0  0  0  0  0
    3.1478   -8.5360   28.5161 C   0  0  0  0  0  0  0  0  0  0  0  0
    0.5798   -7.1906   27.9330 C   0  0  0  0  0  0  0  0  0  0  0  0
    0.3978   -5.1561   26.6955 C   0  0  0  0  0  0  0  0  0  0  0  0
    2.3063  -10.0533   30.0125 C   0  0  0  0  0  0  0  0  0  0  0  0
    1.8591   -6.8254   27.4685 N   0  0  0  0  0  0  0  0  0  0  0  0
   -0.2167  -12.1055   18.5568 C   0  0  0  0  0  0  0  0  0  0  0  0
   -2.0661  -10.6994   18.1916 C   0  0  0  0  0  0  0  0  0  0  0  0
    5.2703   -7.5691   27.1123 C   0  0  0  0  0  0  0  0  0  0  0  0
    1.6204   -9.9887   17.2935 C   0  0  0  0  0  0  0  0  0  0  0  0
    1.8931   -7.9265   16.2047 C   0  0  0  0  0  0  0  0  0  0  0  0
    2.4396   -9.0801   16.7132 C   0  0  0  0  0  0  0  0  0  0  0  0
   -0.2575   -8.6234   16.8582 C   0  0  0  0  0  0  0  0  0  0  0  0
    4.0614   -7.0367   27.0106 N   0  0  0  0  0  0  0  0  0  0  0  0
   -2.9133  -11.6279   18.7578 C   0  0  0  0  0  0  0  0  0  0  0  0
    4.5688  -10.1291   29.5758 C   0  0  0  0  0  0  0  0  0  0  0  0
    2.1008   -9.0410   29.1852 N   0  0  0  0  0  0  0  0  0  0  0  0
    3.4829  -10.5697   30.2091 N   0  0  0  0  0  0  0  0  0  0  0  0
   -0.3363   -6.1172   27.5628 C   0  0  0  0  0  0  0  0  0  0  0  0
    3.0331   -7.4400   27.6362 C   0  0  0  0  0  0  0  0  0  0  0  0
    5.4553   -8.5933   27.9644 C   0  0  0  0  0  0  0  0  0  0  0  0
   -2.3870  -12.8440   19.2512 C   0  0  0  0  0  0  0  0  0  0  0  0
    0.5331   -7.6964   16.2751 C   0  0  0  0  0  0  0  0  0  0  0  0
   -0.6740  -10.8737   18.0482 C   0  0  0  0  0  0  0  0  0  0  0  0
    5.6751  -10.5870   29.7637 O   0  0  0  0  0  0  0  0  0  0  0  0
    1.7612   -5.6483   26.7172 C   0  0  0  0  0  0  0  0  0  0  0  0
    0.2221   -9.8326   17.4055 C   0  0  0  0  0  0  0  0  0  0  0  0
    4.3850   -9.0730   28.6745 C   0  0  0  0  0  0  0  0  0  0  0  0
  1  7  4  0
  1 22  4  0
  2 17  4  0
  2 20  4  0
  2 28  4  0
  3  6  1  0
  3 19  1  0
  4 19  1  0
  4 26  1  0
  5 17  4  0
  5 18  4  0
  6 20  1  0
  6 26  1  0
  7 24  4  0
  8 15  4  0
  8 24  4  0
  9 14  4  0
  9 21  4  0
 10 12  4  0
 10 27  4  0
 11 12  4  0
 11 23  4  0
 13 23  4  0
 13 27  4  0
 14 20  4  0
 15 22  4  0
 16 18  4  0
 16 25  2  0
 16 28  4  0
 21 28  4  0
 24 27  1  0
M  END
$$$$

 Created by Python create_sdf_string function

 28 31  0  0  0  0  0  0  0  0999 V2000
   -1.0054  -13.0622   19.1198 C   0  0  0  0  0  0  0  0  0  0  0  0
    3.1478   -8.5360   28.5161 C   0  0  0  0  0  0  0  0  0  0  0  0
    0.5798   -7.1906   27.9330 C   0  0  0  0  0  0  0  0  0  0  0  0
    0.3978   -5.1561   26.6955 C   0  0  0  0  0  0  0  0  0  0  0  0
    2.3063  -10.0533   30.0125 C   0  0  0  0  0  0  0  0  0  0  0  0
    1.8591   -6.8254   27.4685 N   0  0  0  0  0  0  0  0  0  0  0  0
   -0.2167  -12.1055   18.5568 C   0  0  0  0  0  0  0  0  0  0  0  0
   -2.0661  -10.6994   18.1916 C   0  0  0  0  0  0  0  0  0  0  0  0
    5.2703   -7.5691   27.1123 C   0  0  0  0  0  0  0  0  0  0  0  0
    1.6204   -9.9887   17.2935 C   0  0  0  0  0  0  0  0  0  0  0  0
    1.8931   -7.9265   16.2047 C   0  0  0  0  0  0  0  0  0  0  0  0
    2.4396   -9.0801   16.7132 C   0  0  0  0  0  0  0  0  0  0  0  0
   -0.2575   -8.6234   16.8582 C   0  0  0  0  0  0  0  0  0  0  0  0
    4.0614   -7.0367   27.0106 N   0  0  0  0  0  0  0  0  0  0  0  0
   -2.9133  -11.6279   18.7578 C   0  0  0  0  0  0  0  0  0  0  0  0
    4.5688  -10.1291   29.5758 C   0  0  0  0  0  0  0  0  0  0  0  0
    2.1008   -9.0410   29.1852 N   0  0  0  0  0  0  0  0  0  0  0  0
    3.4829  -10.5697   30.2091 N   0  0  0  0  0  0  0  0  0  0  0  0
   -0.3363   -6.1172   27.5628 C   0  0  0  0  0  0  0  0  0  0  0  0
    3.0331   -7.4400   27.6362 C   0  0  0  0  0  0  0  0  0  0  0  0
    5.4553   -8.5933   27.9644 C   0  0  0  0  0  0  0  0  0  0  0  0
   -2.3870  -12.8440   19.2512 C   0  0  0  0  0  0  0  0  0  0  0  0
    0.5331   -7.6964   16.2751 C   0  0  0  0  0  0  0  0  0  0  0  0
   -0.6740  -10.8737   18.0482 C   0  0  0  0  0  0  0  0  0  0  0  0
    5.6751  -10.5870   29.7637 O   0  0  0  0  0  0  0  0  0  0  0  0
    1.7612   -5.6483   26.7172 C   0  0  0  0  0  0  0  0  0  0  0  0
    0.2221   -9.8326   17.4055 C   0  0  0  0  0  0  0  0  0  0  0  0
    4.3850   -9.0730   28.6745 C   0  0  0  0  0  0  0  0  0  0  0  0
  1  7  4  0
  1 22  4  0
  2 17  4  0
  2 20  4  0
  2 28  4  0
  3  6  1  0
  3 19  1  0
  4 19  1  0
  4 26  1  0
  5 17  4  0
  5 18  4  0
  6 20  1  0
  6 26  1  0
  7 24  4  0
  8 15  4  0
  8 24  4  0
  9 14  4  0
  9 21  4  0
 10 12  4  0
 10 27  4  0
 11 12  4  0
 11 23  4  0
 13 23  4  0
 13 27  4  0
 14 20  4  0
 15 22  4  0
 16 18  4  0
 16 25  2  0
 16 28  4  0
 21 28  4  0
 24 27  1  0
M  END
$$$$

 Created by Python create_sdf_string function

 28 31  0  0  0  0  0  0  0  0999 V2000
   -1.0054  -13.0622   19.1198 C   0  0  0  0  0  0  0  0  0  0  0  0
    3.1478   -8.5360   28.5161 C   0  0  0  0  0  0  0  0  0  0  0  0
    0.5798   -7.1906   27.9330 C   0  0  0  0  0  0  0  0  0  0  0  0
    0.3978   -5.1561   26.6955 C   0  0  0  0  0  0  0  0  0  0  0  0
    2.3063  -10.0533   30.0125 C   0  0  0  0  0  0  0  0  0  0  0  0
    1.8591   -6.8254   27.4685 N   0  0  0  0  0  0  0  0  0  0  0  0
   -0.2167  -12.1055   18.5568 C   0  0  0  0  0  0  0  0  0  0  0  0
   -2.0661  -10.6994   18.1916 C   0  0  0  0  0  0  0  0  0  0  0  0
    5.2703   -7.5691   27.1123 C   0  0  0  0  0  0  0  0  0  0  0  0
    1.6204   -9.9887   17.2935 C   0  0  0  0  0  0  0  0  0  0  0  0
    1.8931   -7.9265   16.2047 C   0  0  0  0  0  0  0  0  0  0  0  0
    2.4396   -9.0801   16.7132 C   0  0  0  0  0  0  0  0  0  0  0  0
   -0.2575   -8.6234   16.8582 C   0  0  0  0  0  0  0  0  0  0  0  0
    4.0614   -7.0367   27.0106 N   0  0  0  0  0  0  0  0  0  0  0  0
   -2.9133  -11.6279   18.7578 C   0  0  0  0  0  0  0  0  0  0  0  0
    4.5688  -10.1291   29.5758 C   0  0  0  0  0  0  0  0  0  0  0  0
    2.1008   -9.0410   29.1852 N   0  0  0  0  0  0  0  0  0  0  0  0
    3.4829  -10.5697   30.2091 N   0  0  0  0  0  0  0  0  0  0  0  0
   -0.3363   -6.1172   27.5628 C   0  0  0  0  0  0  0  0  0  0  0  0
    3.0331   -7.4400   27.6362 C   0  0  0  0  0  0  0  0  0  0  0  0
    5.4553   -8.5933   27.9644 C   0  0  0  0  0  0  0  0  0  0  0  0
   -2.3870  -12.8440   19.2512 C   0  0  0  0  0  0  0  0  0  0  0  0
    0.5331   -7.6964   16.2751 C   0  0  0  0  0  0  0  0  0  0  0  0
   -0.6740  -10.8737   18.0482 C   0  0  0  0  0  0  0  0  0  0  0  0
    5.6751  -10.5870   29.7637 O   0  0  0  0  0  0  0  0  0  0  0  0
    1.7612   -5.6483   26.7172 C   0  0  0  0  0  0  0  0  0  0  0  0
    0.2221   -9.8326   17.4055 C   0  0  0  0  0  0  0  0  0  0  0  0
    4.3850   -9.0730   28.6745 C   0  0  0  0  0  0  0  0  0  0  0  0
  1  7  4  0
  1 22  4  0
  2 17  4  0
  2 20  4  0
  2 28  4  0
  3  6  1  0
  3 19  1  0
  4 19  1  0
  4 26  1  0
  5 17  4  0
  5 18  4  0
  6 20  1  0
  6 26  1  0
  7 24  4  0
  8 15  4  0
  8 24  4  0
  9 14  4  0
  9 21  4  0
 10 12  4  0
 10 27  4  0
 11 12  4  0
 11 23  4  0
 13 23  4  0
 13 27  4  0
 14 20  4  0
 15 22  4  0
 16 18  4  0
 16 25  2  0
 16 28  4  0
 21 28  4  0
 24 27  1  0
M  END
$$$$

 Created by Python create_sdf_string function

 28 31  0  0  0  0  0  0  0  0999 V2000
   -1.0054  -13.0622   19.1198 C   0  0  0  0  0  0  0  0  0  0  0  0
    3.1478   -8.5360   28.5161 C   0  0  0  0  0  0  0  0  0  0  0  0
    0.5798   -7.1906   27.9330 C   0  0  0  0  0  0  0  0  0  0  0  0
    0.3978   -5.1561   26.6955 C   0  0  0  0  0  0  0  0  0  0  0  0
    2.3063  -10.0533   30.0125 C   0  0  0  0  0  0  0  0  0  0  0  0
    1.8591   -6.8254   27.4685 N   0  0  0  0  0  0  0  0  0  0  0  0
   -0.2167  -12.1055   18.5568 C   0  0  0  0  0  0  0  0  0  0  0  0
   -2.0661  -10.6994   18.1916 C   0  0  0  0  0  0  0  0  0  0  0  0
    5.2703   -7.5691   27.1123 C   0  0  0  0  0  0  0  0  0  0  0  0
    1.6204   -9.9887   17.2935 C   0  0  0  0  0  0  0  0  0  0  0  0
    1.8931   -7.9265   16.2047 C   0  0  0  0  0  0  0  0  0  0  0  0
    2.4396   -9.0801   16.7132 C   0  0  0  0  0  0  0  0  0  0  0  0
   -0.2575   -8.6234   16.8582 C   0  0  0  0  0  0  0  0  0  0  0  0
    4.0614   -7.0367   27.0106 N   0  0  0  0  0  0  0  0  0  0  0  0
   -2.9133  -11.6279   18.7578 C   0  0  0  0  0  0  0  0  0  0  0  0
    4.5688  -10.1291   29.5758 C   0  0  0  0  0  0  0  0  0  0  0  0
    2.1008   -9.0410   29.1852 N   0  0  0  0  0  0  0  0  0  0  0  0
    3.4829  -10.5697   30.2091 N   0  0  0  0  0  0  0  0  0  0  0  0
   -0.3363   -6.1172   27.5628 C   0  0  0  0  0  0  0  0  0  0  0  0
    3.0331   -7.4400   27.6362 C   0  0  0  0  0  0  0  0  0  0  0  0
    5.4553   -8.5933   27.9644 C   0  0  0  0  0  0  0  0  0  0  0  0
   -2.3870  -12.8440   19.2512 C   0  0  0  0  0  0  0  0  0  0  0  0
    0.5331   -7.6964   16.2751 C   0  0  0  0  0  0  0  0  0  0  0  0
   -0.6740  -10.8737   18.0482 C   0  0  0  0  0  0  0  0  0  0  0  0
    5.6751  -10.5870   29.7637 O   0  0  0  0  0  0  0  0  0  0  0  0
    1.7612   -5.6483   26.7172 C   0  0  0  0  0  0  0  0  0  0  0  0
    0.2221   -9.8326   17.4055 C   0  0  0  0  0  0  0  0  0  0  0  0
    4.3850   -9.0730   28.6745 C   0  0  0  0  0  0  0  0  0  0  0  0
  1  7  4  0
  1 22  4  0
  2 17  4  0
  2 20  4  0
  2 28  4  0
  3  6  1  0
  3 19  1  0
  4 19  1  0
  4 26  1  0
  5 17  4  0
  5 18  4  0
  6 20  1  0
  6 26  1  0
  7 24  4  0
  8 15  4  0
  8 24  4  0
  9 14  4  0
  9 21  4  0
 10 12  4  0
 10 27  4  0
 11 12  4  0
 11 23  4  0
 13 23  4  0
 13 27  4  0
 14 20  4  0
 15 22  4  0
 16 18  4  0
 16 25  2  0
 16 28  4  0
 21 28  4  0
 24 27  1  0
M  END
$$$$

 Created by Python create_sdf_string function

 28 31  0  0  0  0  0  0  0  0999 V2000
   -1.0054  -13.0622   19.1198 C   0  0  0  0  0  0  0  0  0  0  0  0
    3.1478   -8.5360   28.5161 C   0  0  0  0  0  0  0  0  0  0  0  0
    0.5798   -7.1906   27.9330 C   0  0  0  0  0  0  0  0  0  0  0  0
    0.3978   -5.1561   26.6955 C   0  0  0  0  0  0  0  0  0  0  0  0
    2.3063  -10.0533   30.0125 C   0  0  0  0  0  0  0  0  0  0  0  0
    1.8591   -6.8254   27.4685 N   0  0  0  0  0  0  0  0  0  0  0  0
   -0.2167  -12.1055   18.5568 C   0  0  0  0  0  0  0  0  0  0  0  0
   -2.0661  -10.6994   18.1916 C   0  0  0  0  0  0  0  0  0  0  0  0
    5.2703   -7.5691   27.1123 C   0  0  0  0  0  0  0  0  0  0  0  0
    1.6204   -9.9887   17.2935 C   0  0  0  0  0  0  0  0  0  0  0  0
    1.8931   -7.9265   16.2047 C   0  0  0  0  0  0  0  0  0  0  0  0
    2.4396   -9.0801   16.7132 C   0  0  0  0  0  0  0  0  0  0  0  0
   -0.2575   -8.6234   16.8582 C   0  0  0  0  0  0  0  0  0  0  0  0
    4.0614   -7.0367   27.0106 N   0  0  0  0  0  0  0  0  0  0  0  0
   -2.9133  -11.6279   18.7578 C   0  0  0  0  0  0  0  0  0  0  0  0
    4.5688  -10.1291   29.5758 C   0  0  0  0  0  0  0  0  0  0  0  0
    2.1008   -9.0410   29.1852 N   0  0  0  0  0  0  0  0  0  0  0  0
    3.4829  -10.5697   30.2091 N   0  0  0  0  0  0  0  0  0  0  0  0
   -0.3363   -6.1172   27.5628 C   0  0  0  0  0  0  0  0  0  0  0  0
    3.0331   -7.4400   27.6362 C   0  0  0  0  0  0  0  0  0  0  0  0
    5.4553   -8.5933   27.9644 C   0  0  0  0  0  0  0  0  0  0  0  0
   -2.3870  -12.8440   19.2512 C   0  0  0  0  0  0  0  0  0  0  0  0
    0.5331   -7.6964   16.2751 C   0  0  0  0  0  0  0  0  0  0  0  0
   -0.6740  -10.8737   18.0482 C   0  0  0  0  0  0  0  0  0  0  0  0
    5.6751  -10.5870   29.7637 O   0  0  0  0  0  0  0  0  0  0  0  0
    1.7612   -5.6483   26.7172 C   0  0  0  0  0  0  0  0  0  0  0  0
    0.2221   -9.8326   17.4055 C   0  0  0  0  0  0  0  0  0  0  0  0
    4.3850   -9.0730   28.6745 C   0  0  0  0  0  0  0  0  0  0  0  0
  1  7  4  0
  1 22  4  0
  2 17  4  0
  2 20  4  0
  2 28  4  0
  3  6  1  0
  3 19  1  0
  4 19  1  0
  4 26  1  0
  5 17  4  0
  5 18  4  0
  6 20  1  0
  6 26  1  0
  7 24  4  0
  8 15  4  0
  8 24  4  0
  9 14  4  0
  9 21  4  0
 10 12  4  0
 10 27  4  0
 11 12  4  0
 11 23  4  0
 13 23  4  0
 13 27  4  0
 14 20  4  0
 15 22  4  0
 16 18  4  0
 16 25  2  0
 16 28  4  0
 21 28  4  0
 24 27  1  0
M  END
$$$$

 Created by Python create_sdf_string function

 28 31  0  0  0  0  0  0  0  0999 V2000
   -1.0054  -13.0622   19.1198 C   0  0  0  0  0  0  0  0  0  0  0  0
    3.1478   -8.5360   28.5161 C   0  0  0  0  0  0  0  0  0  0  0  0
    0.5798   -7.1906   27.9330 C   0  0  0  0  0  0  0  0  0  0  0  0
    0.3978   -5.1561   26.6955 C   0  0  0  0  0  0  0  0  0  0  0  0
    2.3063  -10.0533   30.0125 C   0  0  0  0  0  0  0  0  0  0  0  0
    1.8591   -6.8254   27.4685 N   0  0  0  0  0  0  0  0  0  0  0  0
   -0.2167  -12.1055   18.5568 C   0  0  0  0  0  0  0  0  0  0  0  0
   -2.0661  -10.6994   18.1916 C   0  0  0  0  0  0  0  0  0  0  0  0
    5.2703   -7.5691   27.1123 C   0  0  0  0  0  0  0  0  0  0  0  0
    1.6204   -9.9887   17.2935 C   0  0  0  0  0  0  0  0  0  0  0  0
    1.8931   -7.9265   16.2047 C   0  0  0  0  0  0  0  0  0  0  0  0
    2.4396   -9.0801   16.7132 C   0  0  0  0  0  0  0  0  0  0  0  0
   -0.2575   -8.6234   16.8582 C   0  0  0  0  0  0  0  0  0  0  0  0
    4.0614   -7.0367   27.0106 N   0  0  0  0  0  0  0  0  0  0  0  0
   -2.9133  -11.6279   18.7578 C   0  0  0  0  0  0  0  0  0  0  0  0
    4.5688  -10.1291   29.5758 C   0  0  0  0  0  0  0  0  0  0  0  0
    2.1008   -9.0410   29.1852 N   0  0  0  0  0  0  0  0  0  0  0  0
    3.4829  -10.5697   30.2091 N   0  0  0  0  0  0  0  0  0  0  0  0
   -0.3363   -6.1172   27.5628 C   0  0  0  0  0  0  0  0  0  0  0  0
    3.0331   -7.4400   27.6362 C   0  0  0  0  0  0  0  0  0  0  0  0
    5.4553   -8.5933   27.9644 C   0  0  0  0  0  0  0  0  0  0  0  0
   -2.3870  -12.8440   19.2512 C   0  0  0  0  0  0  0  0  0  0  0  0
    0.5331   -7.6964   16.2751 C   0  0  0  0  0  0  0  0  0  0  0  0
   -0.6740  -10.8737   18.0482 C   0  0  0  0  0  0  0  0  0  0  0  0
    5.6751  -10.5870   29.7637 O   0  0  0  0  0  0  0  0  0  0  0  0
    1.7612   -5.6483   26.7172 C   0  0  0  0  0  0  0  0  0  0  0  0
    0.2221   -9.8326   17.4055 C   0  0  0  0  0  0  0  0  0  0  0  0
    4.3850   -9.0730   28.6745 C   0  0  0  0  0  0  0  0  0  0  0  0
  1  7  4  0
  1 22  4  0
  2 17  4  0
  2 20  4  0
  2 28  4  0
  3  6  1  0
  3 19  1  0
  4 19  1  0
  4 26  1  0
  5 17  4  0
  5 18  4  0
  6 20  1  0
  6 26  1  0
  7 24  4  0
  8 15  4  0
  8 24  4  0
  9 14  4  0
  9 21  4  0
 10 12  4  0
 10 27  4  0
 11 12  4  0
 11 23  4  0
 13 23  4  0
 13 27  4  0
 14 20  4  0
 15 22  4  0
 16 18  4  0
 16 25  2  0
 16 28  4  0
 21 28  4  0
 24 27  1  0
M  END
$$$$

 Created by Python create_sdf_string function

 28 31  0  0  0  0  0  0  0  0999 V2000
   -1.0054  -13.0622   19.1198 C   0  0  0  0  0  0  0  0  0  0  0  0
    3.1478   -8.5360   28.5161 C   0  0  0  0  0  0  0  0  0  0  0  0
    0.5798   -7.1906   27.9330 C   0  0  0  0  0  0  0  0  0  0  0  0
    0.3978   -5.1561   26.6955 C   0  0  0  0  0  0  0  0  0  0  0  0
    2.3063  -10.0533   30.0125 C   0  0  0  0  0  0  0  0  0  0  0  0
    1.8591   -6.8254   27.4685 N   0  0  0  0  0  0  0  0  0  0  0  0
   -0.2167  -12.1055   18.5568 C   0  0  0  0  0  0  0  0  0  0  0  0
   -2.0661  -10.6994   18.1916 C   0  0  0  0  0  0  0  0  0  0  0  0
    5.2703   -7.5691   27.1123 C   0  0  0  0  0  0  0  0  0  0  0  0
    1.6204   -9.9887   17.2935 C   0  0  0  0  0  0  0  0  0  0  0  0
    1.8931   -7.9265   16.2047 C   0  0  0  0  0  0  0  0  0  0  0  0
    2.4396   -9.0801   16.7132 C   0  0  0  0  0  0  0  0  0  0  0  0
   -0.2575   -8.6234   16.8582 C   0  0  0  0  0  0  0  0  0  0  0  0
    4.0614   -7.0367   27.0106 N   0  0  0  0  0  0  0  0  0  0  0  0
   -2.9133  -11.6279   18.7578 C   0  0  0  0  0  0  0  0  0  0  0  0
    4.5688  -10.1291   29.5758 C   0  0  0  0  0  0  0  0  0  0  0  0
    2.1008   -9.0410   29.1852 N   0  0  0  0  0  0  0  0  0  0  0  0
    3.4829  -10.5697   30.2091 N   0  0  0  0  0  0  0  0  0  0  0  0
   -0.3363   -6.1172   27.5628 C   0  0  0  0  0  0  0  0  0  0  0  0
    3.0331   -7.4400   27.6362 C   0  0  0  0  0  0  0  0  0  0  0  0
    5.4553   -8.5933   27.9644 C   0  0  0  0  0  0  0  0  0  0  0  0
   -2.3870  -12.8440   19.2512 C   0  0  0  0  0  0  0  0  0  0  0  0
    0.5331   -7.6964   16.2751 C   0  0  0  0  0  0  0  0  0  0  0  0
   -0.6740  -10.8737   18.0482 C   0  0  0  0  0  0  0  0  0  0  0  0
    5.6751  -10.5870   29.7637 O   0  0  0  0  0  0  0  0  0  0  0  0
    1.7612   -5.6483   26.7172 C   0  0  0  0  0  0  0  0  0  0  0  0
    0.2221   -9.8326   17.4055 C   0  0  0  0  0  0  0  0  0  0  0  0
    4.3850   -9.0730   28.6745 C   0  0  0  0  0  0  0  0  0  0  0  0
  1  7  4  0
  1 22  4  0
  2 17  4  0
  2 20  4  0
  2 28  4  0
  3  6  1  0
  3 19  1  0
  4 19  1  0
  4 26  1  0
  5 17  4  0
  5 18  4  0
  6 20  1  0
  6 26  1  0
  7 24  4  0
  8 15  4  0
  8 24  4  0
  9 14  4  0
  9 21  4  0
 10 12  4  0
 10 27  4  0
 11 12  4  0
 11 23  4  0
 13 23  4  0
 13 27  4  0
 14 20  4  0
 15 22  4  0
 16 18  4  0
 16 25  2  0
 16 28  4  0
 21 28  4  0
 24 27  1  0
M  END
$$$$

 Created by Python create_sdf_string function

 28 31  0  0  0  0  0  0  0  0999 V2000
   -1.0054  -13.0622   19.1198 C   0  0  0  0  0  0  0  0  0  0  0  0
    3.1478   -8.5360   28.5161 C   0  0  0  0  0  0  0  0  0  0  0  0
    0.5798   -7.1906   27.9330 C   0  0  0  0  0  0  0  0  0  0  0  0
    0.3978   -5.1561   26.6955 C   0  0  0  0  0  0  0  0  0  0  0  0
    2.3063  -10.0533   30.0125 C   0  0  0  0  0  0  0  0  0  0  0  0
    1.8591   -6.8254   27.4685 N   0  0  0  0  0  0  0  0  0  0  0  0
   -0.2167  -12.1055   18.5568 C   0  0  0  0  0  0  0  0  0  0  0  0
   -2.0661  -10.6994   18.1916 C   0  0  0  0  0  0  0  0  0  0  0  0
    5.2703   -7.5691   27.1123 C   0  0  0  0  0  0  0  0  0  0  0  0
    1.6204   -9.9887   17.2935 C   0  0  0  0  0  0  0  0  0  0  0  0
    1.8931   -7.9265   16.2047 C   0  0  0  0  0  0  0  0  0  0  0  0
    2.4396   -9.0801   16.7132 C   0  0  0  0  0  0  0  0  0  0  0  0
   -0.2575   -8.6234   16.8582 C   0  0  0  0  0  0  0  0  0  0  0  0
    4.0614   -7.0367   27.0106 N   0  0  0  0  0  0  0  0  0  0  0  0
   -2.9133  -11.6279   18.7578 C   0  0  0  0  0  0  0  0  0  0  0  0
    4.5688  -10.1291   29.5758 C   0  0  0  0  0  0  0  0  0  0  0  0
    2.1008   -9.0410   29.1852 N   0  0  0  0  0  0  0  0  0  0  0  0
    3.4829  -10.5697   30.2091 N   0  0  0  0  0  0  0  0  0  0  0  0
   -0.3363   -6.1172   27.5628 C   0  0  0  0  0  0  0  0  0  0  0  0
    3.0331   -7.4400   27.6362 C   0  0  0  0  0  0  0  0  0  0  0  0
    5.4553   -8.5933   27.9644 C   0  0  0  0  0  0  0  0  0  0  0  0
   -2.3870  -12.8440   19.2512 C   0  0  0  0  0  0  0  0  0  0  0  0
    0.5331   -7.6964   16.2751 C   0  0  0  0  0  0  0  0  0  0  0  0
   -0.6740  -10.8737   18.0482 C   0  0  0  0  0  0  0  0  0  0  0  0
    5.6751  -10.5870   29.7637 O   0  0  0  0  0  0  0  0  0  0  0  0
    1.7612   -5.6483   26.7172 C   0  0  0  0  0  0  0  0  0  0  0  0
    0.2221   -9.8326   17.4055 C   0  0  0  0  0  0  0  0  0  0  0  0
    4.3850   -9.0730   28.6745 C   0  0  0  0  0  0  0  0  0  0  0  0
  1  7  4  0
  1 22  4  0
  2 17  4  0
  2 20  4  0
  2 28  4  0
  3  6  1  0
  3 19  1  0
  4 19  1  0
  4 26  1  0
  5 17  4  0
  5 18  4  0
  6 20  1  0
  6 26  1  0
  7 24  4  0
  8 15  4  0
  8 24  4  0
  9 14  4  0
  9 21  4  0
 10 12  4  0
 10 27  4  0
 11 12  4  0
 11 23  4  0
 13 23  4  0
 13 27  4  0
 14 20  4  0
 15 22  4  0
 16 18  4  0
 16 25  2  0
 16 28  4  0
 21 28  4  0
 24 27  1  0
M  END
$$$$

 Created by Python create_sdf_string function

 28 31  0  0  0  0  0  0  0  0999 V2000
   -1.0054  -13.0622   19.1198 C   0  0  0  0  0  0  0  0  0  0  0  0
    3.1478   -8.5360   28.5161 C   0  0  0  0  0  0  0  0  0  0  0  0
    0.5798   -7.1906   27.9330 C   0  0  0  0  0  0  0  0  0  0  0  0
    0.3978   -5.1561   26.6955 C   0  0  0  0  0  0  0  0  0  0  0  0
    2.3063  -10.0533   30.0125 C   0  0  0  0  0  0  0  0  0  0  0  0
    1.8591   -6.8254   27.4685 N   0  0  0  0  0  0  0  0  0  0  0  0
   -0.2167  -12.1055   18.5568 C   0  0  0  0  0  0  0  0  0  0  0  0
   -2.0661  -10.6994   18.1916 C   0  0  0  0  0  0  0  0  0  0  0  0
    5.2703   -7.5691   27.1123 C   0  0  0  0  0  0  0  0  0  0  0  0
    1.6204   -9.9887   17.2935 C   0  0  0  0  0  0  0  0  0  0  0  0
    1.8931   -7.9265   16.2047 C   0  0  0  0  0  0  0  0  0  0  0  0
    2.4396   -9.0801   16.7132 C   0  0  0  0  0  0  0  0  0  0  0  0
   -0.2575   -8.6234   16.8582 C   0  0  0  0  0  0  0  0  0  0  0  0
    4.0614   -7.0367   27.0106 N   0  0  0  0  0  0  0  0  0  0  0  0
   -2.9133  -11.6279   18.7578 C   0  0  0  0  0  0  0  0  0  0  0  0
    4.5688  -10.1291   29.5758 C   0  0  0  0  0  0  0  0  0  0  0  0
    2.1008   -9.0410   29.1852 N   0  0  0  0  0  0  0  0  0  0  0  0
    3.4829  -10.5697   30.2091 N   0  0  0  0  0  0  0  0  0  0  0  0
   -0.3363   -6.1172   27.5628 C   0  0  0  0  0  0  0  0  0  0  0  0
    3.0331   -7.4400   27.6362 C   0  0  0  0  0  0  0  0  0  0  0  0
    5.4553   -8.5933   27.9644 C   0  0  0  0  0  0  0  0  0  0  0  0
   -2.3870  -12.8440   19.2512 C   0  0  0  0  0  0  0  0  0  0  0  0
    0.5331   -7.6964   16.2751 C   0  0  0  0  0  0  0  0  0  0  0  0
   -0.6740  -10.8737   18.0482 C   0  0  0  0  0  0  0  0  0  0  0  0
    5.6751  -10.5870   29.7637 O   0  0  0  0  0  0  0  0  0  0  0  0
    1.7612   -5.6483   26.7172 C   0  0  0  0  0  0  0  0  0  0  0  0
    0.2221   -9.8326   17.4055 C   0  0  0  0  0  0  0  0  0  0  0  0
    4.3850   -9.0730   28.6745 C   0  0  0  0  0  0  0  0  0  0  0  0
  1  7  4  0
  1 22  4  0
  2 17  4  0
  2 20  4  0
  2 28  4  0
  3  6  1  0
  3 19  1  0
  4 19  1  0
  4 26  1  0
  5 17  4  0
  5 18  4  0
  6 20  1  0
  6 26  1  0
  7 24  4  0
  8 15  4  0
  8 24  4  0
  9 14  4  0
  9 21  4  0
 10 12  4  0
 10 27  4  0
 11 12  4  0
 11 23  4  0
 13 23  4  0
 13 27  4  0
 14 20  4  0
 15 22  4  0
 16 18  4  0
 16 25  2  0
 16 28  4  0
 21 28  4  0
 24 27  1  0
M  END
$$$$

 Created by Python create_sdf_string function

 28 31  0  0  0  0  0  0  0  0999 V2000
   -1.0054  -13.0622   19.1198 C   0  0  0  0  0  0  0  0  0  0  0  0
    3.1478   -8.5360   28.5161 C   0  0  0  0  0  0  0  0  0  0  0  0
    0.5798   -7.1906   27.9330 C   0  0  0  0  0  0  0  0  0  0  0  0
    0.3978   -5.1561   26.6955 C   0  0  0  0  0  0  0  0  0  0  0  0
    2.3063  -10.0533   30.0125 C   0  0  0  0  0  0  0  0  0  0  0  0
    1.8591   -6.8254   27.4685 N   0  0  0  0  0  0  0  0  0  0  0  0
   -0.2167  -12.1055   18.5568 C   0  0  0  0  0  0  0  0  0  0  0  0
   -2.0661  -10.6994   18.1916 C   0  0  0  0  0  0  0  0  0  0  0  0
    5.2703   -7.5691   27.1123 C   0  0  0  0  0  0  0  0  0  0  0  0
    1.6204   -9.9887   17.2935 C   0  0  0  0  0  0  0  0  0  0  0  0
    1.8931   -7.9265   16.2047 C   0  0  0  0  0  0  0  0  0  0  0  0
    2.4396   -9.0801   16.7132 C   0  0  0  0  0  0  0  0  0  0  0  0
   -0.2575   -8.6234   16.8582 C   0  0  0  0  0  0  0  0  0  0  0  0
    4.0614   -7.0367   27.0106 N   0  0  0  0  0  0  0  0  0  0  0  0
   -2.9133  -11.6279   18.7578 C   0  0  0  0  0  0  0  0  0  0  0  0
    4.5688  -10.1291   29.5758 C   0  0  0  0  0  0  0  0  0  0  0  0
    2.1008   -9.0410   29.1852 N   0  0  0  0  0  0  0  0  0  0  0  0
    3.4829  -10.5697   30.2091 N   0  0  0  0  0  0  0  0  0  0  0  0
   -0.3363   -6.1172   27.5628 C   0  0  0  0  0  0  0  0  0  0  0  0
    3.0331   -7.4400   27.6362 C   0  0  0  0  0  0  0  0  0  0  0  0
    5.4553   -8.5933   27.9644 C   0  0  0  0  0  0  0  0  0  0  0  0
   -2.3870  -12.8440   19.2512 C   0  0  0  0  0  0  0  0  0  0  0  0
    0.5331   -7.6964   16.2751 C   0  0  0  0  0  0  0  0  0  0  0  0
   -0.6740  -10.8737   18.0482 C   0  0  0  0  0  0  0  0  0  0  0  0
    5.6751  -10.5870   29.7637 O   0  0  0  0  0  0  0  0  0  0  0  0
    1.7612   -5.6483   26.7172 C   0  0  0  0  0  0  0  0  0  0  0  0
    0.2221   -9.8326   17.4055 C   0  0  0  0  0  0  0  0  0  0  0  0
    4.3850   -9.0730   28.6745 C   0  0  0  0  0  0  0  0  0  0  0  0
  1  7  4  0
  1 22  4  0
  2 17  4  0
  2 20  4  0
  2 28  4  0
  3  6  1  0
  3 19  1  0
  4 19  1  0
  4 26  1  0
  5 17  4  0
  5 18  4  0
  6 20  1  0
  6 26  1  0
  7 24  4  0
  8 15  4  0
  8 24  4  0
  9 14  4  0
  9 21  4  0
 10 12  4  0
 10 27  4  0
 11 12  4  0
 11 23  4  0
 13 23  4  0
 13 27  4  0
 14 20  4  0
 15 22  4  0
 16 18  4  0
 16 25  2  0
 16 28  4  0
 21 28  4  0
 24 27  1  0
M  END
$$$$

 Created by Python create_sdf_string function

 28 31  0  0  0  0  0  0  0  0999 V2000
   -1.0054  -13.0622   19.1198 C   0  0  0  0  0  0  0  0  0  0  0  0
    3.1478   -8.5360   28.5161 C   0  0  0  0  0  0  0  0  0  0  0  0
    0.5798   -7.1906   27.9330 C   0  0  0  0  0  0  0  0  0  0  0  0
    0.3978   -5.1561   26.6955 C   0  0  0  0  0  0  0  0  0  0  0  0
    2.3063  -10.0533   30.0125 C   0  0  0  0  0  0  0  0  0  0  0  0
    1.8591   -6.8254   27.4685 N   0  0  0  0  0  0  0  0  0  0  0  0
   -0.2167  -12.1055   18.5568 C   0  0  0  0  0  0  0  0  0  0  0  0
   -2.0661  -10.6994   18.1916 C   0  0  0  0  0  0  0  0  0  0  0  0
    5.2703   -7.5691   27.1123 C   0  0  0  0  0  0  0  0  0  0  0  0
    1.6204   -9.9887   17.2935 C   0  0  0  0  0  0  0  0  0  0  0  0
    1.8931   -7.9265   16.2047 C   0  0  0  0  0  0  0  0  0  0  0  0
    2.4396   -9.0801   16.7132 C   0  0  0  0  0  0  0  0  0  0  0  0
   -0.2575   -8.6234   16.8582 C   0  0  0  0  0  0  0  0  0  0  0  0
    4.0614   -7.0367   27.0106 N   0  0  0  0  0  0  0  0  0  0  0  0
   -2.9133  -11.6279   18.7578 C   0  0  0  0  0  0  0  0  0  0  0  0
    4.5688  -10.1291   29.5758 C   0  0  0  0  0  0  0  0  0  0  0  0
    2.1008   -9.0410   29.1852 N   0  0  0  0  0  0  0  0  0  0  0  0
    3.4829  -10.5697   30.2091 N   0  0  0  0  0  0  0  0  0  0  0  0
   -0.3363   -6.1172   27.5628 C   0  0  0  0  0  0  0  0  0  0  0  0
    3.0331   -7.4400   27.6362 C   0  0  0  0  0  0  0  0  0  0  0  0
    5.4553   -8.5933   27.9644 C   0  0  0  0  0  0  0  0  0  0  0  0
   -2.3870  -12.8440   19.2512 C   0  0  0  0  0  0  0  0  0  0  0  0
    0.5331   -7.6964   16.2751 C   0  0  0  0  0  0  0  0  0  0  0  0
   -0.6740  -10.8737   18.0482 C   0  0  0  0  0  0  0  0  0  0  0  0
    5.6751  -10.5870   29.7637 O   0  0  0  0  0  0  0  0  0  0  0  0
    1.7612   -5.6483   26.7172 C   0  0  0  0  0  0  0  0  0  0  0  0
    0.2221   -9.8326   17.4055 C   0  0  0  0  0  0  0  0  0  0  0  0
    4.3850   -9.0730   28.6745 C   0  0  0  0  0  0  0  0  0  0  0  0
  1  7  4  0
  1 22  4  0
  2 17  4  0
  2 20  4  0
  2 28  4  0
  3  6  1  0
  3 19  1  0
  4 19  1  0
  4 26  1  0
  5 17  4  0
  5 18  4  0
  6 20  1  0
  6 26  1  0
  7 24  4  0
  8 15  4  0
  8 24  4  0
  9 14  4  0
  9 21  4  0
 10 12  4  0
 10 27  4  0
 11 12  4  0
 11 23  4  0
 13 23  4  0
 13 27  4  0
 14 20  4  0
 15 22  4  0
 16 18  4  0
 16 25  2  0
 16 28  4  0
 21 28  4  0
 24 27  1  0
M  END
$$$$

 Created by Python create_sdf_string function

 28 31  0  0  0  0  0  0  0  0999 V2000
   -1.0054  -13.0622   19.1198 C   0  0  0  0  0  0  0  0  0  0  0  0
    3.1478   -8.5360   28.5161 C   0  0  0  0  0  0  0  0  0  0  0  0
    0.5798   -7.1906   27.9330 C   0  0  0  0  0  0  0  0  0  0  0  0
    0.3978   -5.1561   26.6955 C   0  0  0  0  0  0  0  0  0  0  0  0
    2.3063  -10.0533   30.0125 C   0  0  0  0  0  0  0  0  0  0  0  0
    1.8591   -6.8254   27.4685 N   0  0  0  0  0  0  0  0  0  0  0  0
   -0.2167  -12.1055   18.5568 C   0  0  0  0  0  0  0  0  0  0  0  0
   -2.0661  -10.6994   18.1916 C   0  0  0  0  0  0  0  0  0  0  0  0
    5.2703   -7.5691   27.1123 C   0  0  0  0  0  0  0  0  0  0  0  0
    1.6204   -9.9887   17.2935 C   0  0  0  0  0  0  0  0  0  0  0  0
    1.8931   -7.9265   16.2047 C   0  0  0  0  0  0  0  0  0  0  0  0
    2.4396   -9.0801   16.7132 C   0  0  0  0  0  0  0  0  0  0  0  0
   -0.2575   -8.6234   16.8582 C   0  0  0  0  0  0  0  0  0  0  0  0
    4.0614   -7.0367   27.0106 N   0  0  0  0  0  0  0  0  0  0  0  0
   -2.9133  -11.6279   18.7578 C   0  0  0  0  0  0  0  0  0  0  0  0
    4.5688  -10.1291   29.5758 C   0  0  0  0  0  0  0  0  0  0  0  0
    2.1008   -9.0410   29.1852 N   0  0  0  0  0  0  0  0  0  0  0  0
    3.4829  -10.5697   30.2091 N   0  0  0  0  0  0  0  0  0  0  0  0
   -0.3363   -6.1172   27.5628 C   0  0  0  0  0  0  0  0  0  0  0  0
    3.0331   -7.4400   27.6362 C   0  0  0  0  0  0  0  0  0  0  0  0
    5.4553   -8.5933   27.9644 C   0  0  0  0  0  0  0  0  0  0  0  0
   -2.3870  -12.8440   19.2512 C   0  0  0  0  0  0  0  0  0  0  0  0
    0.5331   -7.6964   16.2751 C   0  0  0  0  0  0  0  0  0  0  0  0
   -0.6740  -10.8737   18.0482 C   0  0  0  0  0  0  0  0  0  0  0  0
    5.6751  -10.5870   29.7637 O   0  0  0  0  0  0  0  0  0  0  0  0
    1.7612   -5.6483   26.7172 C   0  0  0  0  0  0  0  0  0  0  0  0
    0.2221   -9.8326   17.4055 C   0  0  0  0  0  0  0  0  0  0  0  0
    4.3850   -9.0730   28.6745 C   0  0  0  0  0  0  0  0  0  0  0  0
  1  7  4  0
  1 22  4  0
  2 17  4  0
  2 20  4  0
  2 28  4  0
  3  6  1  0
  3 19  1  0
  4 19  1  0
  4 26  1  0
  5 17  4  0
  5 18  4  0
  6 20  1  0
  6 26  1  0
  7 24  4  0
  8 15  4  0
  8 24  4  0
  9 14  4  0
  9 21  4  0
 10 12  4  0
 10 27  4  0
 11 12  4  0
 11 23  4  0
 13 23  4  0
 13 27  4  0
 14 20  4  0
 15 22  4  0
 16 18  4  0
 16 25  2  0
 16 28  4  0
 21 28  4  0
 24 27  1  0
M  END
$$$$

 Created by Python create_sdf_string function

 28 31  0  0  0  0  0  0  0  0999 V2000
   -1.0054  -13.0622   19.1198 C   0  0  0  0  0  0  0  0  0  0  0  0
    3.1478   -8.5360   28.5161 C   0  0  0  0  0  0  0  0  0  0  0  0
    0.5798   -7.1906   27.9330 C   0  0  0  0  0  0  0  0  0  0  0  0
    0.3978   -5.1561   26.6955 C   0  0  0  0  0  0  0  0  0  0  0  0
    2.3063  -10.0533   30.0125 C   0  0  0  0  0  0  0  0  0  0  0  0
    1.8591   -6.8254   27.4685 N   0  0  0  0  0  0  0  0  0  0  0  0
   -0.2167  -12.1055   18.5568 C   0  0  0  0  0  0  0  0  0  0  0  0
   -2.0661  -10.6994   18.1916 C   0  0  0  0  0  0  0  0  0  0  0  0
    5.2703   -7.5691   27.1123 C   0  0  0  0  0  0  0  0  0  0  0  0
    1.6204   -9.9887   17.2935 C   0  0  0  0  0  0  0  0  0  0  0  0
    1.8931   -7.9265   16.2047 C   0  0  0  0  0  0  0  0  0  0  0  0
    2.4396   -9.0801   16.7132 C   0  0  0  0  0  0  0  0  0  0  0  0
   -0.2575   -8.6234   16.8582 C   0  0  0  0  0  0  0  0  0  0  0  0
    4.0614   -7.0367   27.0106 N   0  0  0  0  0  0  0  0  0  0  0  0
   -2.9133  -11.6279   18.7578 C   0  0  0  0  0  0  0  0  0  0  0  0
    4.5688  -10.1291   29.5758 C   0  0  0  0  0  0  0  0  0  0  0  0
    2.1008   -9.0410   29.1852 N   0  0  0  0  0  0  0  0  0  0  0  0
    3.4829  -10.5697   30.2091 N   0  0  0  0  0  0  0  0  0  0  0  0
   -0.3363   -6.1172   27.5628 C   0  0  0  0  0  0  0  0  0  0  0  0
    3.0331   -7.4400   27.6362 C   0  0  0  0  0  0  0  0  0  0  0  0
    5.4553   -8.5933   27.9644 C   0  0  0  0  0  0  0  0  0  0  0  0
   -2.3870  -12.8440   19.2512 C   0  0  0  0  0  0  0  0  0  0  0  0
    0.5331   -7.6964   16.2751 C   0  0  0  0  0  0  0  0  0  0  0  0
   -0.6740  -10.8737   18.0482 C   0  0  0  0  0  0  0  0  0  0  0  0
    5.6751  -10.5870   29.7637 O   0  0  0  0  0  0  0  0  0  0  0  0
    1.7612   -5.6483   26.7172 C   0  0  0  0  0  0  0  0  0  0  0  0
    0.2221   -9.8326   17.4055 C   0  0  0  0  0  0  0  0  0  0  0  0
    4.3850   -9.0730   28.6745 C   0  0  0  0  0  0  0  0  0  0  0  0
  1  7  4  0
  1 22  4  0
  2 17  4  0
  2 20  4  0
  2 28  4  0
  3  6  1  0
  3 19  1  0
  4 19  1  0
  4 26  1  0
  5 17  4  0
  5 18  4  0
  6 20  1  0
  6 26  1  0
  7 24  4  0
  8 15  4  0
  8 24  4  0
  9 14  4  0
  9 21  4  0
 10 12  4  0
 10 27  4  0
 11 12  4  0
 11 23  4  0
 13 23  4  0
 13 27  4  0
 14 20  4  0
 15 22  4  0
 16 18  4  0
 16 25  2  0
 16 28  4  0
 21 28  4  0
 24 27  1  0
M  END
$$$$

 Created by Python create_sdf_string function

 28 31  0  0  0  0  0  0  0  0999 V2000
   -1.0054  -13.0622   19.1198 C   0  0  0  0  0  0  0  0  0  0  0  0
    3.1478   -8.5360   28.5161 C   0  0  0  0  0  0  0  0  0  0  0  0
    0.5798   -7.1906   27.9330 C   0  0  0  0  0  0  0  0  0  0  0  0
    0.3978   -5.1561   26.6955 C   0  0  0  0  0  0  0  0  0  0  0  0
    2.3063  -10.0533   30.0125 C   0  0  0  0  0  0  0  0  0  0  0  0
    1.8591   -6.8254   27.4685 N   0  0  0  0  0  0  0  0  0  0  0  0
   -0.2167  -12.1055   18.5568 C   0  0  0  0  0  0  0  0  0  0  0  0
   -2.0661  -10.6994   18.1916 C   0  0  0  0  0  0  0  0  0  0  0  0
    5.2703   -7.5691   27.1123 C   0  0  0  0  0  0  0  0  0  0  0  0
    1.6204   -9.9887   17.2935 C   0  0  0  0  0  0  0  0  0  0  0  0
    1.8931   -7.9265   16.2047 C   0  0  0  0  0  0  0  0  0  0  0  0
    2.4396   -9.0801   16.7132 C   0  0  0  0  0  0  0  0  0  0  0  0
   -0.2575   -8.6234   16.8582 C   0  0  0  0  0  0  0  0  0  0  0  0
    4.0614   -7.0367   27.0106 N   0  0  0  0  0  0  0  0  0  0  0  0
   -2.9133  -11.6279   18.7578 C   0  0  0  0  0  0  0  0  0  0  0  0
    4.5688  -10.1291   29.5758 C   0  0  0  0  0  0  0  0  0  0  0  0
    2.1008   -9.0410   29.1852 N   0  0  0  0  0  0  0  0  0  0  0  0
    3.4829  -10.5697   30.2091 N   0  0  0  0  0  0  0  0  0  0  0  0
   -0.3363   -6.1172   27.5628 C   0  0  0  0  0  0  0  0  0  0  0  0
    3.0331   -7.4400   27.6362 C   0  0  0  0  0  0  0  0  0  0  0  0
    5.4553   -8.5933   27.9644 C   0  0  0  0  0  0  0  0  0  0  0  0
   -2.3870  -12.8440   19.2512 C   0  0  0  0  0  0  0  0  0  0  0  0
    0.5331   -7.6964   16.2751 C   0  0  0  0  0  0  0  0  0  0  0  0
   -0.6740  -10.8737   18.0482 C   0  0  0  0  0  0  0  0  0  0  0  0
    5.6751  -10.5870   29.7637 O   0  0  0  0  0  0  0  0  0  0  0  0
    1.7612   -5.6483   26.7172 C   0  0  0  0  0  0  0  0  0  0  0  0
    0.2221   -9.8326   17.4055 C   0  0  0  0  0  0  0  0  0  0  0  0
    4.3850   -9.0730   28.6745 C   0  0  0  0  0  0  0  0  0  0  0  0
  1  7  4  0
  1 22  4  0
  2 17  4  0
  2 20  4  0
  2 28  4  0
  3  6  1  0
  3 19  1  0
  4 19  1  0
  4 26  1  0
  5 17  4  0
  5 18  4  0
  6 20  1  0
  6 26  1  0
  7 24  4  0
  8 15  4  0
  8 24  4  0
  9 14  4  0
  9 21  4  0
 10 12  4  0
 10 27  4  0
 11 12  4  0
 11 23  4  0
 13 23  4  0
 13 27  4  0
 14 20  4  0
 15 22  4  0
 16 18  4  0
 16 25  2  0
 16 28  4  0
 21 28  4  0
 24 27  1  0
M  END
$$$$

 Created by Python create_sdf_string function

 28 31  0  0  0  0  0  0  0  0999 V2000
   -1.0054  -13.0622   19.1198 C   0  0  0  0  0  0  0  0  0  0  0  0
    3.1478   -8.5360   28.5161 C   0  0  0  0  0  0  0  0  0  0  0  0
    0.5798   -7.1906   27.9330 C   0  0  0  0  0  0  0  0  0  0  0  0
    0.3978   -5.1561   26.6955 C   0  0  0  0  0  0  0  0  0  0  0  0
    2.3063  -10.0533   30.0125 C   0  0  0  0  0  0  0  0  0  0  0  0
    1.8591   -6.8254   27.4685 N   0  0  0  0  0  0  0  0  0  0  0  0
   -0.2167  -12.1055   18.5568 C   0  0  0  0  0  0  0  0  0  0  0  0
   -2.0661  -10.6994   18.1916 C   0  0  0  0  0  0  0  0  0  0  0  0
    5.2703   -7.5691   27.1123 C   0  0  0  0  0  0  0  0  0  0  0  0
    1.6204   -9.9887   17.2935 C   0  0  0  0  0  0  0  0  0  0  0  0
    1.8931   -7.9265   16.2047 C   0  0  0  0  0  0  0  0  0  0  0  0
    2.4396   -9.0801   16.7132 C   0  0  0  0  0  0  0  0  0  0  0  0
   -0.2575   -8.6234   16.8582 C   0  0  0  0  0  0  0  0  0  0  0  0
    4.0614   -7.0367   27.0106 N   0  0  0  0  0  0  0  0  0  0  0  0
   -2.9133  -11.6279   18.7578 C   0  0  0  0  0  0  0  0  0  0  0  0
    4.5688  -10.1291   29.5758 C   0  0  0  0  0  0  0  0  0  0  0  0
    2.1008   -9.0410   29.1852 N   0  0  0  0  0  0  0  0  0  0  0  0
    3.4829  -10.5697   30.2091 N   0  0  0  0  0  0  0  0  0  0  0  0
   -0.3363   -6.1172   27.5628 C   0  0  0  0  0  0  0  0  0  0  0  0
    3.0331   -7.4400   27.6362 C   0  0  0  0  0  0  0  0  0  0  0  0
    5.4553   -8.5933   27.9644 C   0  0  0  0  0  0  0  0  0  0  0  0
   -2.3870  -12.8440   19.2512 C   0  0  0  0  0  0  0  0  0  0  0  0
    0.5331   -7.6964   16.2751 C   0  0  0  0  0  0  0  0  0  0  0  0
   -0.6740  -10.8737   18.0482 C   0  0  0  0  0  0  0  0  0  0  0  0
    5.6751  -10.5870   29.7637 O   0  0  0  0  0  0  0  0  0  0  0  0
    1.7612   -5.6483   26.7172 C   0  0  0  0  0  0  0  0  0  0  0  0
    0.2221   -9.8326   17.4055 C   0  0  0  0  0  0  0  0  0  0  0  0
    4.3850   -9.0730   28.6745 C   0  0  0  0  0  0  0  0  0  0  0  0
  1  7  4  0
  1 22  4  0
  2 17  4  0
  2 20  4  0
  2 28  4  0
  3  6  1  0
  3 19  1  0
  4 19  1  0
  4 26  1  0
  5 17  4  0
  5 18  4  0
  6 20  1  0
  6 26  1  0
  7 24  4  0
  8 15  4  0
  8 24  4  0
  9 14  4  0
  9 21  4  0
 10 12  4  0
 10 27  4  0
 11 12  4  0
 11 23  4  0
 13 23  4  0
 13 27  4  0
 14 20  4  0
 15 22  4  0
 16 18  4  0
 16 25  2  0
 16 28  4  0
 21 28  4  0
 24 27  1  0
M  END
$$$$

 Created by Python create_sdf_string function

 28 31  0  0  0  0  0  0  0  0999 V2000
   -1.0054  -13.0622   19.1198 C   0  0  0  0  0  0  0  0  0  0  0  0
    3.1478   -8.5360   28.5161 C   0  0  0  0  0  0  0  0  0  0  0  0
    0.5798   -7.1906   27.9330 C   0  0  0  0  0  0  0  0  0  0  0  0
    0.3978   -5.1561   26.6955 C   0  0  0  0  0  0  0  0  0  0  0  0
    2.3063  -10.0533   30.0125 C   0  0  0  0  0  0  0  0  0  0  0  0
    1.8591   -6.8254   27.4685 N   0  0  0  0  0  0  0  0  0  0  0  0
   -0.2167  -12.1055   18.5568 C   0  0  0  0  0  0  0  0  0  0  0  0
   -2.0661  -10.6994   18.1916 C   0  0  0  0  0  0  0  0  0  0  0  0
    5.2703   -7.5691   27.1123 C   0  0  0  0  0  0  0  0  0  0  0  0
    1.6204   -9.9887   17.2935 C   0  0  0  0  0  0  0  0  0  0  0  0
    1.8931   -7.9265   16.2047 C   0  0  0  0  0  0  0  0  0  0  0  0
    2.4396   -9.0801   16.7132 C   0  0  0  0  0  0  0  0  0  0  0  0
   -0.2575   -8.6234   16.8582 C   0  0  0  0  0  0  0  0  0  0  0  0
    4.0614   -7.0367   27.0106 N   0  0  0  0  0  0  0  0  0  0  0  0
   -2.9133  -11.6279   18.7578 C   0  0  0  0  0  0  0  0  0  0  0  0
    4.5688  -10.1291   29.5758 C   0  0  0  0  0  0  0  0  0  0  0  0
    2.1008   -9.0410   29.1852 N   0  0  0  0  0  0  0  0  0  0  0  0
    3.4829  -10.5697   30.2091 N   0  0  0  0  0  0  0  0  0  0  0  0
   -0.3363   -6.1172   27.5628 C   0  0  0  0  0  0  0  0  0  0  0  0
    3.0331   -7.4400   27.6362 C   0  0  0  0  0  0  0  0  0  0  0  0
    5.4553   -8.5933   27.9644 C   0  0  0  0  0  0  0  0  0  0  0  0
   -2.3870  -12.8440   19.2512 C   0  0  0  0  0  0  0  0  0  0  0  0
    0.5331   -7.6964   16.2751 C   0  0  0  0  0  0  0  0  0  0  0  0
   -0.6740  -10.8737   18.0482 C   0  0  0  0  0  0  0  0  0  0  0  0
    5.6751  -10.5870   29.7637 O   0  0  0  0  0  0  0  0  0  0  0  0
    1.7612   -5.6483   26.7172 C   0  0  0  0  0  0  0  0  0  0  0  0
    0.2221   -9.8326   17.4055 C   0  0  0  0  0  0  0  0  0  0  0  0
    4.3850   -9.0730   28.6745 C   0  0  0  0  0  0  0  0  0  0  0  0
  1  7  4  0
  1 22  4  0
  2 17  4  0
  2 20  4  0
  2 28  4  0
  3  6  1  0
  3 19  1  0
  4 19  1  0
  4 26  1  0
  5 17  4  0
  5 18  4  0
  6 20  1  0
  6 26  1  0
  7 24  4  0
  8 15  4  0
  8 24  4  0
  9 14  4  0
  9 21  4  0
 10 12  4  0
 10 27  4  0
 11 12  4  0
 11 23  4  0
 13 23  4  0
 13 27  4  0
 14 20  4  0
 15 22  4  0
 16 18  4  0
 16 25  2  0
 16 28  4  0
 21 28  4  0
 24 27  1  0
M  END
$$$$

 Created by Python create_sdf_string function

 28 31  0  0  0  0  0  0  0  0999 V2000
   -1.0054  -13.0622   19.1198 C   0  0  0  0  0  0  0  0  0  0  0  0
    3.1478   -8.5360   28.5161 C   0  0  0  0  0  0  0  0  0  0  0  0
    0.5798   -7.1906   27.9330 C   0  0  0  0  0  0  0  0  0  0  0  0
    0.3978   -5.1561   26.6955 C   0  0  0  0  0  0  0  0  0  0  0  0
    2.3063  -10.0533   30.0125 C   0  0  0  0  0  0  0  0  0  0  0  0
    1.8591   -6.8254   27.4685 N   0  0  0  0  0  0  0  0  0  0  0  0
   -0.2167  -12.1055   18.5568 C   0  0  0  0  0  0  0  0  0  0  0  0
   -2.0661  -10.6994   18.1916 C   0  0  0  0  0  0  0  0  0  0  0  0
    5.2703   -7.5691   27.1123 C   0  0  0  0  0  0  0  0  0  0  0  0
    1.6204   -9.9887   17.2935 C   0  0  0  0  0  0  0  0  0  0  0  0
    1.8931   -7.9265   16.2047 C   0  0  0  0  0  0  0  0  0  0  0  0
    2.4396   -9.0801   16.7132 C   0  0  0  0  0  0  0  0  0  0  0  0
   -0.2575   -8.6234   16.8582 C   0  0  0  0  0  0  0  0  0  0  0  0
    4.0614   -7.0367   27.0106 N   0  0  0  0  0  0  0  0  0  0  0  0
   -2.9133  -11.6279   18.7578 C   0  0  0  0  0  0  0  0  0  0  0  0
    4.5688  -10.1291   29.5758 C   0  0  0  0  0  0  0  0  0  0  0  0
    2.1008   -9.0410   29.1852 N   0  0  0  0  0  0  0  0  0  0  0  0
    3.4829  -10.5697   30.2091 N   0  0  0  0  0  0  0  0  0  0  0  0
   -0.3363   -6.1172   27.5628 C   0  0  0  0  0  0  0  0  0  0  0  0
    3.0331   -7.4400   27.6362 C   0  0  0  0  0  0  0  0  0  0  0  0
    5.4553   -8.5933   27.9644 C   0  0  0  0  0  0  0  0  0  0  0  0
   -2.3870  -12.8440   19.2512 C   0  0  0  0  0  0  0  0  0  0  0  0
    0.5331   -7.6964   16.2751 C   0  0  0  0  0  0  0  0  0  0  0  0
   -0.6740  -10.8737   18.0482 C   0  0  0  0  0  0  0  0  0  0  0  0
    5.6751  -10.5870   29.7637 O   0  0  0  0  0  0  0  0  0  0  0  0
    1.7612   -5.6483   26.7172 C   0  0  0  0  0  0  0  0  0  0  0  0
    0.2221   -9.8326   17.4055 C   0  0  0  0  0  0  0  0  0  0  0  0
    4.3850   -9.0730   28.6745 C   0  0  0  0  0  0  0  0  0  0  0  0
  1  7  4  0
  1 22  4  0
  2 17  4  0
  2 20  4  0
  2 28  4  0
  3  6  1  0
  3 19  1  0
  4 19  1  0
  4 26  1  0
  5 17  4  0
  5 18  4  0
  6 20  1  0
  6 26  1  0
  7 24  4  0
  8 15  4  0
  8 24  4  0
  9 14  4  0
  9 21  4  0
 10 12  4  0
 10 27  4  0
 11 12  4  0
 11 23  4  0
 13 23  4  0
 13 27  4  0
 14 20  4  0
 15 22  4  0
 16 18  4  0
 16 25  2  0
 16 28  4  0
 21 28  4  0
 24 27  1  0
M  END
$$$$

 Created by Python create_sdf_string function

 28 31  0  0  0  0  0  0  0  0999 V2000
   -1.0054  -13.0622   19.1198 C   0  0  0  0  0  0  0  0  0  0  0  0
    3.1478   -8.5360   28.5161 C   0  0  0  0  0  0  0  0  0  0  0  0
    0.5798   -7.1906   27.9330 C   0  0  0  0  0  0  0  0  0  0  0  0
    0.3978   -5.1561   26.6955 C   0  0  0  0  0  0  0  0  0  0  0  0
    2.3063  -10.0533   30.0125 C   0  0  0  0  0  0  0  0  0  0  0  0
    1.8591   -6.8254   27.4685 N   0  0  0  0  0  0  0  0  0  0  0  0
   -0.2167  -12.1055   18.5568 C   0  0  0  0  0  0  0  0  0  0  0  0
   -2.0661  -10.6994   18.1916 C   0  0  0  0  0  0  0  0  0  0  0  0
    5.2703   -7.5691   27.1123 C   0  0  0  0  0  0  0  0  0  0  0  0
    1.6204   -9.9887   17.2935 C   0  0  0  0  0  0  0  0  0  0  0  0
    1.8931   -7.9265   16.2047 C   0  0  0  0  0  0  0  0  0  0  0  0
    2.4396   -9.0801   16.7132 C   0  0  0  0  0  0  0  0  0  0  0  0
   -0.2575   -8.6234   16.8582 C   0  0  0  0  0  0  0  0  0  0  0  0
    4.0614   -7.0367   27.0106 N   0  0  0  0  0  0  0  0  0  0  0  0
   -2.9133  -11.6279   18.7578 C   0  0  0  0  0  0  0  0  0  0  0  0
    4.5688  -10.1291   29.5758 C   0  0  0  0  0  0  0  0  0  0  0  0
    2.1008   -9.0410   29.1852 N   0  0  0  0  0  0  0  0  0  0  0  0
    3.4829  -10.5697   30.2091 N   0  0  0  0  0  0  0  0  0  0  0  0
   -0.3363   -6.1172   27.5628 C   0  0  0  0  0  0  0  0  0  0  0  0
    3.0331   -7.4400   27.6362 C   0  0  0  0  0  0  0  0  0  0  0  0
    5.4553   -8.5933   27.9644 C   0  0  0  0  0  0  0  0  0  0  0  0
   -2.3870  -12.8440   19.2512 C   0  0  0  0  0  0  0  0  0  0  0  0
    0.5331   -7.6964   16.2751 C   0  0  0  0  0  0  0  0  0  0  0  0
   -0.6740  -10.8737   18.0482 C   0  0  0  0  0  0  0  0  0  0  0  0
    5.6751  -10.5870   29.7637 O   0  0  0  0  0  0  0  0  0  0  0  0
    1.7612   -5.6483   26.7172 C   0  0  0  0  0  0  0  0  0  0  0  0
    0.2221   -9.8326   17.4055 C   0  0  0  0  0  0  0  0  0  0  0  0
    4.3850   -9.0730   28.6745 C   0  0  0  0  0  0  0  0  0  0  0  0
  1  7  4  0
  1 22  4  0
  2 17  4  0
  2 20  4  0
  2 28  4  0
  3  6  1  0
  3 19  1  0
  4 19  1  0
  4 26  1  0
  5 17  4  0
  5 18  4  0
  6 20  1  0
  6 26  1  0
  7 24  4  0
  8 15  4  0
  8 24  4  0
  9 14  4  0
  9 21  4  0
 10 12  4  0
 10 27  4  0
 11 12  4  0
 11 23  4  0
 13 23  4  0
 13 27  4  0
 14 20  4  0
 15 22  4  0
 16 18  4  0
 16 25  2  0
 16 28  4  0
 21 28  4  0
 24 27  1  0
M  END
$$$$

 Created by Python create_sdf_string function

 28 31  0  0  0  0  0  0  0  0999 V2000
   -1.0054  -13.0622   19.1198 C   0  0  0  0  0  0  0  0  0  0  0  0
    3.1478   -8.5360   28.5161 C   0  0  0  0  0  0  0  0  0  0  0  0
    0.5798   -7.1906   27.9330 C   0  0  0  0  0  0  0  0  0  0  0  0
    0.3978   -5.1561   26.6955 C   0  0  0  0  0  0  0  0  0  0  0  0
    2.3063  -10.0533   30.0125 C   0  0  0  0  0  0  0  0  0  0  0  0
    1.8591   -6.8254   27.4685 N   0  0  0  0  0  0  0  0  0  0  0  0
   -0.2167  -12.1055   18.5568 C   0  0  0  0  0  0  0  0  0  0  0  0
   -2.0661  -10.6994   18.1916 C   0  0  0  0  0  0  0  0  0  0  0  0
    5.2703   -7.5691   27.1123 C   0  0  0  0  0  0  0  0  0  0  0  0
    1.6204   -9.9887   17.2935 C   0  0  0  0  0  0  0  0  0  0  0  0
    1.8931   -7.9265   16.2047 C   0  0  0  0  0  0  0  0  0  0  0  0
    2.4396   -9.0801   16.7132 C   0  0  0  0  0  0  0  0  0  0  0  0
   -0.2575   -8.6234   16.8582 C   0  0  0  0  0  0  0  0  0  0  0  0
    4.0614   -7.0367   27.0106 N   0  0  0  0  0  0  0  0  0  0  0  0
   -2.9133  -11.6279   18.7578 C   0  0  0  0  0  0  0  0  0  0  0  0
    4.5688  -10.1291   29.5758 C   0  0  0  0  0  0  0  0  0  0  0  0
    2.1008   -9.0410   29.1852 N   0  0  0  0  0  0  0  0  0  0  0  0
    3.4829  -10.5697   30.2091 N   0  0  0  0  0  0  0  0  0  0  0  0
   -0.3363   -6.1172   27.5628 C   0  0  0  0  0  0  0  0  0  0  0  0
    3.0331   -7.4400   27.6362 C   0  0  0  0  0  0  0  0  0  0  0  0
    5.4553   -8.5933   27.9644 C   0  0  0  0  0  0  0  0  0  0  0  0
   -2.3870  -12.8440   19.2512 C   0  0  0  0  0  0  0  0  0  0  0  0
    0.5331   -7.6964   16.2751 C   0  0  0  0  0  0  0  0  0  0  0  0
   -0.6740  -10.8737   18.0482 C   0  0  0  0  0  0  0  0  0  0  0  0
    5.6751  -10.5870   29.7637 O   0  0  0  0  0  0  0  0  0  0  0  0
    1.7612   -5.6483   26.7172 C   0  0  0  0  0  0  0  0  0  0  0  0
    0.2221   -9.8326   17.4055 C   0  0  0  0  0  0  0  0  0  0  0  0
    4.3850   -9.0730   28.6745 C   0  0  0  0  0  0  0  0  0  0  0  0
  1  7  4  0
  1 22  4  0
  2 17  4  0
  2 20  4  0
  2 28  4  0
  3  6  1  0
  3 19  1  0
  4 19  1  0
  4 26  1  0
  5 17  4  0
  5 18  4  0
  6 20  1  0
  6 26  1  0
  7 24  4  0
  8 15  4  0
  8 24  4  0
  9 14  4  0
  9 21  4  0
 10 12  4  0
 10 27  4  0
 11 12  4  0
 11 23  4  0
 13 23  4  0
 13 27  4  0
 14 20  4  0
 15 22  4  0
 16 18  4  0
 16 25  2  0
 16 28  4  0
 21 28  4  0
 24 27  1  0
M  END
$$$$

 Created by Python create_sdf_string function

 28 31  0  0  0  0  0  0  0  0999 V2000
   -1.0054  -13.0622   19.1198 C   0  0  0  0  0  0  0  0  0  0  0  0
    3.1478   -8.5360   28.5161 C   0  0  0  0  0  0  0  0  0  0  0  0
    0.5798   -7.1906   27.9330 C   0  0  0  0  0  0  0  0  0  0  0  0
    0.3978   -5.1561   26.6955 C   0  0  0  0  0  0  0  0  0  0  0  0
    2.3063  -10.0533   30.0125 C   0  0  0  0  0  0  0  0  0  0  0  0
    1.8591   -6.8254   27.4685 N   0  0  0  0  0  0  0  0  0  0  0  0
   -0.2167  -12.1055   18.5568 C   0  0  0  0  0  0  0  0  0  0  0  0
   -2.0661  -10.6994   18.1916 C   0  0  0  0  0  0  0  0  0  0  0  0
    5.2703   -7.5691   27.1123 C   0  0  0  0  0  0  0  0  0  0  0  0
    1.6204   -9.9887   17.2935 C   0  0  0  0  0  0  0  0  0  0  0  0
    1.8931   -7.9265   16.2047 C   0  0  0  0  0  0  0  0  0  0  0  0
    2.4396   -9.0801   16.7132 C   0  0  0  0  0  0  0  0  0  0  0  0
   -0.2575   -8.6234   16.8582 C   0  0  0  0  0  0  0  0  0  0  0  0
    4.0614   -7.0367   27.0106 N   0  0  0  0  0  0  0  0  0  0  0  0
   -2.9133  -11.6279   18.7578 C   0  0  0  0  0  0  0  0  0  0  0  0
    4.5688  -10.1291   29.5758 C   0  0  0  0  0  0  0  0  0  0  0  0
    2.1008   -9.0410   29.1852 N   0  0  0  0  0  0  0  0  0  0  0  0
    3.4829  -10.5697   30.2091 N   0  0  0  0  0  0  0  0  0  0  0  0
   -0.3363   -6.1172   27.5628 C   0  0  0  0  0  0  0  0  0  0  0  0
    3.0331   -7.4400   27.6362 C   0  0  0  0  0  0  0  0  0  0  0  0
    5.4553   -8.5933   27.9644 C   0  0  0  0  0  0  0  0  0  0  0  0
   -2.3870  -12.8440   19.2512 C   0  0  0  0  0  0  0  0  0  0  0  0
    0.5331   -7.6964   16.2751 C   0  0  0  0  0  0  0  0  0  0  0  0
   -0.6740  -10.8737   18.0482 C   0  0  0  0  0  0  0  0  0  0  0  0
    5.6751  -10.5870   29.7637 O   0  0  0  0  0  0  0  0  0  0  0  0
    1.7612   -5.6483   26.7172 C   0  0  0  0  0  0  0  0  0  0  0  0
    0.2221   -9.8326   17.4055 C   0  0  0  0  0  0  0  0  0  0  0  0
    4.3850   -9.0730   28.6745 C   0  0  0  0  0  0  0  0  0  0  0  0
  1  7  4  0
  1 22  4  0
  2 17  4  0
  2 20  4  0
  2 28  4  0
  3  6  1  0
  3 19  1  0
  4 19  1  0
  4 26  1  0
  5 17  4  0
  5 18  4  0
  6 20  1  0
  6 26  1  0
  7 24  4  0
  8 15  4  0
  8 24  4  0
  9 14  4  0
  9 21  4  0
 10 12  4  0
 10 27  4  0
 11 12  4  0
 11 23  4  0
 13 23  4  0
 13 27  4  0
 14 20  4  0
 15 22  4  0
 16 18  4  0
 16 25  2  0
 16 28  4  0
 21 28  4  0
 24 27  1  0
M  END
$$$$

 Created by Python create_sdf_string function

 28 31  0  0  0  0  0  0  0  0999 V2000
   -1.0054  -13.0622   19.1198 C   0  0  0  0  0  0  0  0  0  0  0  0
    3.1478   -8.5360   28.5161 C   0  0  0  0  0  0  0  0  0  0  0  0
    0.5798   -7.1906   27.9330 C   0  0  0  0  0  0  0  0  0  0  0  0
    0.3978   -5.1561   26.6955 C   0  0  0  0  0  0  0  0  0  0  0  0
    2.3063  -10.0533   30.0125 C   0  0  0  0  0  0  0  0  0  0  0  0
    1.8591   -6.8254   27.4685 N   0  0  0  0  0  0  0  0  0  0  0  0
   -0.2167  -12.1055   18.5568 C   0  0  0  0  0  0  0  0  0  0  0  0
   -2.0661  -10.6994   18.1916 C   0  0  0  0  0  0  0  0  0  0  0  0
    5.2703   -7.5691   27.1123 C   0  0  0  0  0  0  0  0  0  0  0  0
    1.6204   -9.9887   17.2935 C   0  0  0  0  0  0  0  0  0  0  0  0
    1.8931   -7.9265   16.2047 C   0  0  0  0  0  0  0  0  0  0  0  0
    2.4396   -9.0801   16.7132 C   0  0  0  0  0  0  0  0  0  0  0  0
   -0.2575   -8.6234   16.8582 C   0  0  0  0  0  0  0  0  0  0  0  0
    4.0614   -7.0367   27.0106 N   0  0  0  0  0  0  0  0  0  0  0  0
   -2.9133  -11.6279   18.7578 C   0  0  0  0  0  0  0  0  0  0  0  0
    4.5688  -10.1291   29.5758 C   0  0  0  0  0  0  0  0  0  0  0  0
    2.1008   -9.0410   29.1852 N   0  0  0  0  0  0  0  0  0  0  0  0
    3.4829  -10.5697   30.2091 N   0  0  0  0  0  0  0  0  0  0  0  0
   -0.3363   -6.1172   27.5628 C   0  0  0  0  0  0  0  0  0  0  0  0
    3.0331   -7.4400   27.6362 C   0  0  0  0  0  0  0  0  0  0  0  0
    5.4553   -8.5933   27.9644 C   0  0  0  0  0  0  0  0  0  0  0  0
   -2.3870  -12.8440   19.2512 C   0  0  0  0  0  0  0  0  0  0  0  0
    0.5331   -7.6964   16.2751 C   0  0  0  0  0  0  0  0  0  0  0  0
   -0.6740  -10.8737   18.0482 C   0  0  0  0  0  0  0  0  0  0  0  0
    5.6751  -10.5870   29.7637 O   0  0  0  0  0  0  0  0  0  0  0  0
    1.7612   -5.6483   26.7172 C   0  0  0  0  0  0  0  0  0  0  0  0
    0.2221   -9.8326   17.4055 C   0  0  0  0  0  0  0  0  0  0  0  0
    4.3850   -9.0730   28.6745 C   0  0  0  0  0  0  0  0  0  0  0  0
  1  7  4  0
  1 22  4  0
  2 17  4  0
  2 20  4  0
  2 28  4  0
  3  6  1  0
  3 19  1  0
  4 19  1  0
  4 26  1  0
  5 17  4  0
  5 18  4  0
  6 20  1  0
  6 26  1  0
  7 24  4  0
  8 15  4  0
  8 24  4  0
  9 14  4  0
  9 21  4  0
 10 12  4  0
 10 27  4  0
 11 12  4  0
 11 23  4  0
 13 23  4  0
 13 27  4  0
 14 20  4  0
 15 22  4  0
 16 18  4  0
 16 25  2  0
 16 28  4  0
 21 28  4  0
 24 27  1  0
M  END
$$$$

 Created by Python create_sdf_string function

 28 31  0  0  0  0  0  0  0  0999 V2000
   -1.0054  -13.0622   19.1198 C   0  0  0  0  0  0  0  0  0  0  0  0
    3.1478   -8.5360   28.5161 C   0  0  0  0  0  0  0  0  0  0  0  0
    0.5798   -7.1906   27.9330 C   0  0  0  0  0  0  0  0  0  0  0  0
    0.3978   -5.1561   26.6955 C   0  0  0  0  0  0  0  0  0  0  0  0
    2.3063  -10.0533   30.0125 C   0  0  0  0  0  0  0  0  0  0  0  0
    1.8591   -6.8254   27.4685 N   0  0  0  0  0  0  0  0  0  0  0  0
   -0.2167  -12.1055   18.5568 C   0  0  0  0  0  0  0  0  0  0  0  0
   -2.0661  -10.6994   18.1916 C   0  0  0  0  0  0  0  0  0  0  0  0
    5.2703   -7.5691   27.1123 C   0  0  0  0  0  0  0  0  0  0  0  0
    1.6204   -9.9887   17.2935 C   0  0  0  0  0  0  0  0  0  0  0  0
    1.8931   -7.9265   16.2047 C   0  0  0  0  0  0  0  0  0  0  0  0
    2.4396   -9.0801   16.7132 C   0  0  0  0  0  0  0  0  0  0  0  0
   -0.2575   -8.6234   16.8582 C   0  0  0  0  0  0  0  0  0  0  0  0
    4.0614   -7.0367   27.0106 N   0  0  0  0  0  0  0  0  0  0  0  0
   -2.9133  -11.6279   18.7578 C   0  0  0  0  0  0  0  0  0  0  0  0
    4.5688  -10.1291   29.5758 C   0  0  0  0  0  0  0  0  0  0  0  0
    2.1008   -9.0410   29.1852 N   0  0  0  0  0  0  0  0  0  0  0  0
    3.4829  -10.5697   30.2091 N   0  0  0  0  0  0  0  0  0  0  0  0
   -0.3363   -6.1172   27.5628 C   0  0  0  0  0  0  0  0  0  0  0  0
    3.0331   -7.4400   27.6362 C   0  0  0  0  0  0  0  0  0  0  0  0
    5.4553   -8.5933   27.9644 C   0  0  0  0  0  0  0  0  0  0  0  0
   -2.3870  -12.8440   19.2512 C   0  0  0  0  0  0  0  0  0  0  0  0
    0.5331   -7.6964   16.2751 C   0  0  0  0  0  0  0  0  0  0  0  0
   -0.6740  -10.8737   18.0482 C   0  0  0  0  0  0  0  0  0  0  0  0
    5.6751  -10.5870   29.7637 O   0  0  0  0  0  0  0  0  0  0  0  0
    1.7612   -5.6483   26.7172 C   0  0  0  0  0  0  0  0  0  0  0  0
    0.2221   -9.8326   17.4055 C   0  0  0  0  0  0  0  0  0  0  0  0
    4.3850   -9.0730   28.6745 C   0  0  0  0  0  0  0  0  0  0  0  0
  1  7  4  0
  1 22  4  0
  2 17  4  0
  2 20  4  0
  2 28  4  0
  3  6  1  0
  3 19  1  0
  4 19  1  0
  4 26  1  0
  5 17  4  0
  5 18  4  0
  6 20  1  0
  6 26  1  0
  7 24  4  0
  8 15  4  0
  8 24  4  0
  9 14  4  0
  9 21  4  0
 10 12  4  0
 10 27  4  0
 11 12  4  0
 11 23  4  0
 13 23  4  0
 13 27  4  0
 14 20  4  0
 15 22  4  0
 16 18  4  0
 16 25  2  0
 16 28  4  0
 21 28  4  0
 24 27  1  0
M  END
$$$$

 Created by Python create_sdf_string function

 28 31  0  0  0  0  0  0  0  0999 V2000
   -1.0054  -13.0622   19.1198 C   0  0  0  0  0  0  0  0  0  0  0  0
    3.1478   -8.5360   28.5161 C   0  0  0  0  0  0  0  0  0  0  0  0
    0.5798   -7.1906   27.9330 C   0  0  0  0  0  0  0  0  0  0  0  0
    0.3978   -5.1561   26.6955 C   0  0  0  0  0  0  0  0  0  0  0  0
    2.3063  -10.0533   30.0125 C   0  0  0  0  0  0  0  0  0  0  0  0
    1.8591   -6.8254   27.4685 N   0  0  0  0  0  0  0  0  0  0  0  0
   -0.2167  -12.1055   18.5568 C   0  0  0  0  0  0  0  0  0  0  0  0
   -2.0661  -10.6994   18.1916 C   0  0  0  0  0  0  0  0  0  0  0  0
    5.2703   -7.5691   27.1123 C   0  0  0  0  0  0  0  0  0  0  0  0
    1.6204   -9.9887   17.2935 C   0  0  0  0  0  0  0  0  0  0  0  0
    1.8931   -7.9265   16.2047 C   0  0  0  0  0  0  0  0  0  0  0  0
    2.4396   -9.0801   16.7132 C   0  0  0  0  0  0  0  0  0  0  0  0
   -0.2575   -8.6234   16.8582 C   0  0  0  0  0  0  0  0  0  0  0  0
    4.0614   -7.0367   27.0106 N   0  0  0  0  0  0  0  0  0  0  0  0
   -2.9133  -11.6279   18.7578 C   0  0  0  0  0  0  0  0  0  0  0  0
    4.5688  -10.1291   29.5758 C   0  0  0  0  0  0  0  0  0  0  0  0
    2.1008   -9.0410   29.1852 N   0  0  0  0  0  0  0  0  0  0  0  0
    3.4829  -10.5697   30.2091 N   0  0  0  0  0  0  0  0  0  0  0  0
   -0.3363   -6.1172   27.5628 C   0  0  0  0  0  0  0  0  0  0  0  0
    3.0331   -7.4400   27.6362 C   0  0  0  0  0  0  0  0  0  0  0  0
    5.4553   -8.5933   27.9644 C   0  0  0  0  0  0  0  0  0  0  0  0
   -2.3870  -12.8440   19.2512 C   0  0  0  0  0  0  0  0  0  0  0  0
    0.5331   -7.6964   16.2751 C   0  0  0  0  0  0  0  0  0  0  0  0
   -0.6740  -10.8737   18.0482 C   0  0  0  0  0  0  0  0  0  0  0  0
    5.6751  -10.5870   29.7637 O   0  0  0  0  0  0  0  0  0  0  0  0
    1.7612   -5.6483   26.7172 C   0  0  0  0  0  0  0  0  0  0  0  0
    0.2221   -9.8326   17.4055 C   0  0  0  0  0  0  0  0  0  0  0  0
    4.3850   -9.0730   28.6745 C   0  0  0  0  0  0  0  0  0  0  0  0
  1  7  4  0
  1 22  4  0
  2 17  4  0
  2 20  4  0
  2 28  4  0
  3  6  1  0
  3 19  1  0
  4 19  1  0
  4 26  1  0
  5 17  4  0
  5 18  4  0
  6 20  1  0
  6 26  1  0
  7 24  4  0
  8 15  4  0
  8 24  4  0
  9 14  4  0
  9 21  4  0
 10 12  4  0
 10 27  4  0
 11 12  4  0
 11 23  4  0
 13 23  4  0
 13 27  4  0
 14 20  4  0
 15 22  4  0
 16 18  4  0
 16 25  2  0
 16 28  4  0
 21 28  4  0
 24 27  1  0
M  END
$$$$

 Created by Python create_sdf_string function

 28 31  0  0  0  0  0  0  0  0999 V2000
   -1.0054  -13.0622   19.1198 C   0  0  0  0  0  0  0  0  0  0  0  0
    3.1478   -8.5360   28.5161 C   0  0  0  0  0  0  0  0  0  0  0  0
    0.5798   -7.1906   27.9330 C   0  0  0  0  0  0  0  0  0  0  0  0
    0.3978   -5.1561   26.6955 C   0  0  0  0  0  0  0  0  0  0  0  0
    2.3063  -10.0533   30.0125 C   0  0  0  0  0  0  0  0  0  0  0  0
    1.8591   -6.8254   27.4685 N   0  0  0  0  0  0  0  0  0  0  0  0
   -0.2167  -12.1055   18.5568 C   0  0  0  0  0  0  0  0  0  0  0  0
   -2.0661  -10.6994   18.1916 C   0  0  0  0  0  0  0  0  0  0  0  0
    5.2703   -7.5691   27.1123 C   0  0  0  0  0  0  0  0  0  0  0  0
    1.6204   -9.9887   17.2935 C   0  0  0  0  0  0  0  0  0  0  0  0
    1.8931   -7.9265   16.2047 C   0  0  0  0  0  0  0  0  0  0  0  0
    2.4396   -9.0801   16.7132 C   0  0  0  0  0  0  0  0  0  0  0  0
   -0.2575   -8.6234   16.8582 C   0  0  0  0  0  0  0  0  0  0  0  0
    4.0614   -7.0367   27.0106 N   0  0  0  0  0  0  0  0  0  0  0  0
   -2.9133  -11.6279   18.7578 C   0  0  0  0  0  0  0  0  0  0  0  0
    4.5688  -10.1291   29.5758 C   0  0  0  0  0  0  0  0  0  0  0  0
    2.1008   -9.0410   29.1852 N   0  0  0  0  0  0  0  0  0  0  0  0
    3.4829  -10.5697   30.2091 N   0  0  0  0  0  0  0  0  0  0  0  0
   -0.3363   -6.1172   27.5628 C   0  0  0  0  0  0  0  0  0  0  0  0
    3.0331   -7.4400   27.6362 C   0  0  0  0  0  0  0  0  0  0  0  0
    5.4553   -8.5933   27.9644 C   0  0  0  0  0  0  0  0  0  0  0  0
   -2.3870  -12.8440   19.2512 C   0  0  0  0  0  0  0  0  0  0  0  0
    0.5331   -7.6964   16.2751 C   0  0  0  0  0  0  0  0  0  0  0  0
   -0.6740  -10.8737   18.0482 C   0  0  0  0  0  0  0  0  0  0  0  0
    5.6751  -10.5870   29.7637 O   0  0  0  0  0  0  0  0  0  0  0  0
    1.7612   -5.6483   26.7172 C   0  0  0  0  0  0  0  0  0  0  0  0
    0.2221   -9.8326   17.4055 C   0  0  0  0  0  0  0  0  0  0  0  0
    4.3850   -9.0730   28.6745 C   0  0  0  0  0  0  0  0  0  0  0  0
  1  7  4  0
  1 22  4  0
  2 17  4  0
  2 20  4  0
  2 28  4  0
  3  6  1  0
  3 19  1  0
  4 19  1  0
  4 26  1  0
  5 17  4  0
  5 18  4  0
  6 20  1  0
  6 26  1  0
  7 24  4  0
  8 15  4  0
  8 24  4  0
  9 14  4  0
  9 21  4  0
 10 12  4  0
 10 27  4  0
 11 12  4  0
 11 23  4  0
 13 23  4  0
 13 27  4  0
 14 20  4  0
 15 22  4  0
 16 18  4  0
 16 25  2  0
 16 28  4  0
 21 28  4  0
 24 27  1  0
M  END
$$$$

 Created by Python create_sdf_string function

 28 31  0  0  0  0  0  0  0  0999 V2000
   -1.0054  -13.0622   19.1198 C   0  0  0  0  0  0  0  0  0  0  0  0
    3.1478   -8.5360   28.5161 C   0  0  0  0  0  0  0  0  0  0  0  0
    0.5798   -7.1906   27.9330 C   0  0  0  0  0  0  0  0  0  0  0  0
    0.3978   -5.1561   26.6955 C   0  0  0  0  0  0  0  0  0  0  0  0
    2.3063  -10.0533   30.0125 C   0  0  0  0  0  0  0  0  0  0  0  0
    1.8591   -6.8254   27.4685 N   0  0  0  0  0  0  0  0  0  0  0  0
   -0.2167  -12.1055   18.5568 C   0  0  0  0  0  0  0  0  0  0  0  0
   -2.0661  -10.6994   18.1916 C   0  0  0  0  0  0  0  0  0  0  0  0
    5.2703   -7.5691   27.1123 C   0  0  0  0  0  0  0  0  0  0  0  0
    1.6204   -9.9887   17.2935 C   0  0  0  0  0  0  0  0  0  0  0  0
    1.8931   -7.9265   16.2047 C   0  0  0  0  0  0  0  0  0  0  0  0
    2.4396   -9.0801   16.7132 C   0  0  0  0  0  0  0  0  0  0  0  0
   -0.2575   -8.6234   16.8582 C   0  0  0  0  0  0  0  0  0  0  0  0
    4.0614   -7.0367   27.0106 N   0  0  0  0  0  0  0  0  0  0  0  0
   -2.9133  -11.6279   18.7578 C   0  0  0  0  0  0  0  0  0  0  0  0
    4.5688  -10.1291   29.5758 C   0  0  0  0  0  0  0  0  0  0  0  0
    2.1008   -9.0410   29.1852 N   0  0  0  0  0  0  0  0  0  0  0  0
    3.4829  -10.5697   30.2091 N   0  0  0  0  0  0  0  0  0  0  0  0
   -0.3363   -6.1172   27.5628 C   0  0  0  0  0  0  0  0  0  0  0  0
    3.0331   -7.4400   27.6362 C   0  0  0  0  0  0  0  0  0  0  0  0
    5.4553   -8.5933   27.9644 C   0  0  0  0  0  0  0  0  0  0  0  0
   -2.3870  -12.8440   19.2512 C   0  0  0  0  0  0  0  0  0  0  0  0
    0.5331   -7.6964   16.2751 C   0  0  0  0  0  0  0  0  0  0  0  0
   -0.6740  -10.8737   18.0482 C   0  0  0  0  0  0  0  0  0  0  0  0
    5.6751  -10.5870   29.7637 O   0  0  0  0  0  0  0  0  0  0  0  0
    1.7612   -5.6483   26.7172 C   0  0  0  0  0  0  0  0  0  0  0  0
    0.2221   -9.8326   17.4055 C   0  0  0  0  0  0  0  0  0  0  0  0
    4.3850   -9.0730   28.6745 C   0  0  0  0  0  0  0  0  0  0  0  0
  1  7  4  0
  1 22  4  0
  2 17  4  0
  2 20  4  0
  2 28  4  0
  3  6  1  0
  3 19  1  0
  4 19  1  0
  4 26  1  0
  5 17  4  0
  5 18  4  0
  6 20  1  0
  6 26  1  0
  7 24  4  0
  8 15  4  0
  8 24  4  0
  9 14  4  0
  9 21  4  0
 10 12  4  0
 10 27  4  0
 11 12  4  0
 11 23  4  0
 13 23  4  0
 13 27  4  0
 14 20  4  0
 15 22  4  0
 16 18  4  0
 16 25  2  0
 16 28  4  0
 21 28  4  0
 24 27  1  0
M  END
$$$$

 Created by Python create_sdf_string function

 28 31  0  0  0  0  0  0  0  0999 V2000
   -1.0054  -13.0622   19.1198 C   0  0  0  0  0  0  0  0  0  0  0  0
    3.1478   -8.5360   28.5161 C   0  0  0  0  0  0  0  0  0  0  0  0
    0.5798   -7.1906   27.9330 C   0  0  0  0  0  0  0  0  0  0  0  0
    0.3978   -5.1561   26.6955 C   0  0  0  0  0  0  0  0  0  0  0  0
    2.3063  -10.0533   30.0125 C   0  0  0  0  0  0  0  0  0  0  0  0
    1.8591   -6.8254   27.4685 N   0  0  0  0  0  0  0  0  0  0  0  0
   -0.2167  -12.1055   18.5568 C   0  0  0  0  0  0  0  0  0  0  0  0
   -2.0661  -10.6994   18.1916 C   0  0  0  0  0  0  0  0  0  0  0  0
    5.2703   -7.5691   27.1123 C   0  0  0  0  0  0  0  0  0  0  0  0
    1.6204   -9.9887   17.2935 C   0  0  0  0  0  0  0  0  0  0  0  0
    1.8931   -7.9265   16.2047 C   0  0  0  0  0  0  0  0  0  0  0  0
    2.4396   -9.0801   16.7132 C   0  0  0  0  0  0  0  0  0  0  0  0
   -0.2575   -8.6234   16.8582 C   0  0  0  0  0  0  0  0  0  0  0  0
    4.0614   -7.0367   27.0106 N   0  0  0  0  0  0  0  0  0  0  0  0
   -2.9133  -11.6279   18.7578 C   0  0  0  0  0  0  0  0  0  0  0  0
    4.5688  -10.1291   29.5758 C   0  0  0  0  0  0  0  0  0  0  0  0
    2.1008   -9.0410   29.1852 N   0  0  0  0  0  0  0  0  0  0  0  0
    3.4829  -10.5697   30.2091 N   0  0  0  0  0  0  0  0  0  0  0  0
   -0.3363   -6.1172   27.5628 C   0  0  0  0  0  0  0  0  0  0  0  0
    3.0331   -7.4400   27.6362 C   0  0  0  0  0  0  0  0  0  0  0  0
    5.4553   -8.5933   27.9644 C   0  0  0  0  0  0  0  0  0  0  0  0
   -2.3870  -12.8440   19.2512 C   0  0  0  0  0  0  0  0  0  0  0  0
    0.5331   -7.6964   16.2751 C   0  0  0  0  0  0  0  0  0  0  0  0
   -0.6740  -10.8737   18.0482 C   0  0  0  0  0  0  0  0  0  0  0  0
    5.6751  -10.5870   29.7637 O   0  0  0  0  0  0  0  0  0  0  0  0
    1.7612   -5.6483   26.7172 C   0  0  0  0  0  0  0  0  0  0  0  0
    0.2221   -9.8326   17.4055 C   0  0  0  0  0  0  0  0  0  0  0  0
    4.3850   -9.0730   28.6745 C   0  0  0  0  0  0  0  0  0  0  0  0
  1  7  4  0
  1 22  4  0
  2 17  4  0
  2 20  4  0
  2 28  4  0
  3  6  1  0
  3 19  1  0
  4 19  1  0
  4 26  1  0
  5 17  4  0
  5 18  4  0
  6 20  1  0
  6 26  1  0
  7 24  4  0
  8 15  4  0
  8 24  4  0
  9 14  4  0
  9 21  4  0
 10 12  4  0
 10 27  4  0
 11 12  4  0
 11 23  4  0
 13 23  4  0
 13 27  4  0
 14 20  4  0
 15 22  4  0
 16 18  4  0
 16 25  2  0
 16 28  4  0
 21 28  4  0
 24 27  1  0
M  END
$$$$

 Created by Python create_sdf_string function

 28 31  0  0  0  0  0  0  0  0999 V2000
   -1.0054  -13.0622   19.1198 C   0  0  0  0  0  0  0  0  0  0  0  0
    3.1478   -8.5360   28.5161 C   0  0  0  0  0  0  0  0  0  0  0  0
    0.5798   -7.1906   27.9330 C   0  0  0  0  0  0  0  0  0  0  0  0
    0.3978   -5.1561   26.6955 C   0  0  0  0  0  0  0  0  0  0  0  0
    2.3063  -10.0533   30.0125 C   0  0  0  0  0  0  0  0  0  0  0  0
    1.8591   -6.8254   27.4685 N   0  0  0  0  0  0  0  0  0  0  0  0
   -0.2167  -12.1055   18.5568 C   0  0  0  0  0  0  0  0  0  0  0  0
   -2.0661  -10.6994   18.1916 C   0  0  0  0  0  0  0  0  0  0  0  0
    5.2703   -7.5691   27.1123 C   0  0  0  0  0  0  0  0  0  0  0  0
    1.6204   -9.9887   17.2935 C   0  0  0  0  0  0  0  0  0  0  0  0
    1.8931   -7.9265   16.2047 C   0  0  0  0  0  0  0  0  0  0  0  0
    2.4396   -9.0801   16.7132 C   0  0  0  0  0  0  0  0  0  0  0  0
   -0.2575   -8.6234   16.8582 C   0  0  0  0  0  0  0  0  0  0  0  0
    4.0614   -7.0367   27.0106 N   0  0  0  0  0  0  0  0  0  0  0  0
   -2.9133  -11.6279   18.7578 C   0  0  0  0  0  0  0  0  0  0  0  0
    4.5688  -10.1291   29.5758 C   0  0  0  0  0  0  0  0  0  0  0  0
    2.1008   -9.0410   29.1852 N   0  0  0  0  0  0  0  0  0  0  0  0
    3.4829  -10.5697   30.2091 N   0  0  0  0  0  0  0  0  0  0  0  0
   -0.3363   -6.1172   27.5628 C   0  0  0  0  0  0  0  0  0  0  0  0
    3.0331   -7.4400   27.6362 C   0  0  0  0  0  0  0  0  0  0  0  0
    5.4553   -8.5933   27.9644 C   0  0  0  0  0  0  0  0  0  0  0  0
   -2.3870  -12.8440   19.2512 C   0  0  0  0  0  0  0  0  0  0  0  0
    0.5331   -7.6964   16.2751 C   0  0  0  0  0  0  0  0  0  0  0  0
   -0.6740  -10.8737   18.0482 C   0  0  0  0  0  0  0  0  0  0  0  0
    5.6751  -10.5870   29.7637 O   0  0  0  0  0  0  0  0  0  0  0  0
    1.7612   -5.6483   26.7172 C   0  0  0  0  0  0  0  0  0  0  0  0
    0.2221   -9.8326   17.4055 C   0  0  0  0  0  0  0  0  0  0  0  0
    4.3850   -9.0730   28.6745 C   0  0  0  0  0  0  0  0  0  0  0  0
  1  7  4  0
  1 22  4  0
  2 17  4  0
  2 20  4  0
  2 28  4  0
  3  6  1  0
  3 19  1  0
  4 19  1  0
  4 26  1  0
  5 17  4  0
  5 18  4  0
  6 20  1  0
  6 26  1  0
  7 24  4  0
  8 15  4  0
  8 24  4  0
  9 14  4  0
  9 21  4  0
 10 12  4  0
 10 27  4  0
 11 12  4  0
 11 23  4  0
 13 23  4  0
 13 27  4  0
 14 20  4  0
 15 22  4  0
 16 18  4  0
 16 25  2  0
 16 28  4  0
 21 28  4  0
 24 27  1  0
M  END
$$$$

 Created by Python create_sdf_string function

 28 31  0  0  0  0  0  0  0  0999 V2000
   -1.0054  -13.0622   19.1198 C   0  0  0  0  0  0  0  0  0  0  0  0
    3.1478   -8.5360   28.5161 C   0  0  0  0  0  0  0  0  0  0  0  0
    0.5798   -7.1906   27.9330 C   0  0  0  0  0  0  0  0  0  0  0  0
    0.3978   -5.1561   26.6955 C   0  0  0  0  0  0  0  0  0  0  0  0
    2.3063  -10.0533   30.0125 C   0  0  0  0  0  0  0  0  0  0  0  0
    1.8591   -6.8254   27.4685 N   0  0  0  0  0  0  0  0  0  0  0  0
   -0.2167  -12.1055   18.5568 C   0  0  0  0  0  0  0  0  0  0  0  0
   -2.0661  -10.6994   18.1916 C   0  0  0  0  0  0  0  0  0  0  0  0
    5.2703   -7.5691   27.1123 C   0  0  0  0  0  0  0  0  0  0  0  0
    1.6204   -9.9887   17.2935 C   0  0  0  0  0  0  0  0  0  0  0  0
    1.8931   -7.9265   16.2047 C   0  0  0  0  0  0  0  0  0  0  0  0
    2.4396   -9.0801   16.7132 C   0  0  0  0  0  0  0  0  0  0  0  0
   -0.2575   -8.6234   16.8582 C   0  0  0  0  0  0  0  0  0  0  0  0
    4.0614   -7.0367   27.0106 N   0  0  0  0  0  0  0  0  0  0  0  0
   -2.9133  -11.6279   18.7578 C   0  0  0  0  0  0  0  0  0  0  0  0
    4.5688  -10.1291   29.5758 C   0  0  0  0  0  0  0  0  0  0  0  0
    2.1008   -9.0410   29.1852 N   0  0  0  0  0  0  0  0  0  0  0  0
    3.4829  -10.5697   30.2091 N   0  0  0  0  0  0  0  0  0  0  0  0
   -0.3363   -6.1172   27.5628 C   0  0  0  0  0  0  0  0  0  0  0  0
    3.0331   -7.4400   27.6362 C   0  0  0  0  0  0  0  0  0  0  0  0
    5.4553   -8.5933   27.9644 C   0  0  0  0  0  0  0  0  0  0  0  0
   -2.3870  -12.8440   19.2512 C   0  0  0  0  0  0  0  0  0  0  0  0
    0.5331   -7.6964   16.2751 C   0  0  0  0  0  0  0  0  0  0  0  0
   -0.6740  -10.8737   18.0482 C   0  0  0  0  0  0  0  0  0  0  0  0
    5.6751  -10.5870   29.7637 O   0  0  0  0  0  0  0  0  0  0  0  0
    1.7612   -5.6483   26.7172 C   0  0  0  0  0  0  0  0  0  0  0  0
    0.2221   -9.8326   17.4055 C   0  0  0  0  0  0  0  0  0  0  0  0
    4.3850   -9.0730   28.6745 C   0  0  0  0  0  0  0  0  0  0  0  0
  1  7  4  0
  1 22  4  0
  2 17  4  0
  2 20  4  0
  2 28  4  0
  3  6  1  0
  3 19  1  0
  4 19  1  0
  4 26  1  0
  5 17  4  0
  5 18  4  0
  6 20  1  0
  6 26  1  0
  7 24  4  0
  8 15  4  0
  8 24  4  0
  9 14  4  0
  9 21  4  0
 10 12  4  0
 10 27  4  0
 11 12  4  0
 11 23  4  0
 13 23  4  0
 13 27  4  0
 14 20  4  0
 15 22  4  0
 16 18  4  0
 16 25  2  0
 16 28  4  0
 21 28  4  0
 24 27  1  0
M  END
$$$$

 Created by Python create_sdf_string function

 28 31  0  0  0  0  0  0  0  0999 V2000
   -1.0054  -13.0622   19.1198 C   0  0  0  0  0  0  0  0  0  0  0  0
    3.1478   -8.5360   28.5161 C   0  0  0  0  0  0  0  0  0  0  0  0
    0.5798   -7.1906   27.9330 C   0  0  0  0  0  0  0  0  0  0  0  0
    0.3978   -5.1561   26.6955 C   0  0  0  0  0  0  0  0  0  0  0  0
    2.3063  -10.0533   30.0125 C   0  0  0  0  0  0  0  0  0  0  0  0
    1.8591   -6.8254   27.4685 N   0  0  0  0  0  0  0  0  0  0  0  0
   -0.2167  -12.1055   18.5568 C   0  0  0  0  0  0  0  0  0  0  0  0
   -2.0661  -10.6994   18.1916 C   0  0  0  0  0  0  0  0  0  0  0  0
    5.2703   -7.5691   27.1123 C   0  0  0  0  0  0  0  0  0  0  0  0
    1.6204   -9.9887   17.2935 C   0  0  0  0  0  0  0  0  0  0  0  0
    1.8931   -7.9265   16.2047 C   0  0  0  0  0  0  0  0  0  0  0  0
    2.4396   -9.0801   16.7132 C   0  0  0  0  0  0  0  0  0  0  0  0
   -0.2575   -8.6234   16.8582 C   0  0  0  0  0  0  0  0  0  0  0  0
    4.0614   -7.0367   27.0106 N   0  0  0  0  0  0  0  0  0  0  0  0
   -2.9133  -11.6279   18.7578 C   0  0  0  0  0  0  0  0  0  0  0  0
    4.5688  -10.1291   29.5758 C   0  0  0  0  0  0  0  0  0  0  0  0
    2.1008   -9.0410   29.1852 N   0  0  0  0  0  0  0  0  0  0  0  0
    3.4829  -10.5697   30.2091 N   0  0  0  0  0  0  0  0  0  0  0  0
   -0.3363   -6.1172   27.5628 C   0  0  0  0  0  0  0  0  0  0  0  0
    3.0331   -7.4400   27.6362 C   0  0  0  0  0  0  0  0  0  0  0  0
    5.4553   -8.5933   27.9644 C   0  0  0  0  0  0  0  0  0  0  0  0
   -2.3870  -12.8440   19.2512 C   0  0  0  0  0  0  0  0  0  0  0  0
    0.5331   -7.6964   16.2751 C   0  0  0  0  0  0  0  0  0  0  0  0
   -0.6740  -10.8737   18.0482 C   0  0  0  0  0  0  0  0  0  0  0  0
    5.6751  -10.5870   29.7637 O   0  0  0  0  0  0  0  0  0  0  0  0
    1.7612   -5.6483   26.7172 C   0  0  0  0  0  0  0  0  0  0  0  0
    0.2221   -9.8326   17.4055 C   0  0  0  0  0  0  0  0  0  0  0  0
    4.3850   -9.0730   28.6745 C   0  0  0  0  0  0  0  0  0  0  0  0
  1  7  4  0
  1 22  4  0
  2 17  4  0
  2 20  4  0
  2 28  4  0
  3  6  1  0
  3 19  1  0
  4 19  1  0
  4 26  1  0
  5 17  4  0
  5 18  4  0
  6 20  1  0
  6 26  1  0
  7 24  4  0
  8 15  4  0
  8 24  4  0
  9 14  4  0
  9 21  4  0
 10 12  4  0
 10 27  4  0
 11 12  4  0
 11 23  4  0
 13 23  4  0
 13 27  4  0
 14 20  4  0
 15 22  4  0
 16 18  4  0
 16 25  2  0
 16 28  4  0
 21 28  4  0
 24 27  1  0
M  END
$$$$

 Created by Python create_sdf_string function

 28 31  0  0  0  0  0  0  0  0999 V2000
   -1.0054  -13.0622   19.1198 C   0  0  0  0  0  0  0  0  0  0  0  0
    3.1478   -8.5360   28.5161 C   0  0  0  0  0  0  0  0  0  0  0  0
    0.5798   -7.1906   27.9330 C   0  0  0  0  0  0  0  0  0  0  0  0
    0.3978   -5.1561   26.6955 C   0  0  0  0  0  0  0  0  0  0  0  0
    2.3063  -10.0533   30.0125 C   0  0  0  0  0  0  0  0  0  0  0  0
    1.8591   -6.8254   27.4685 N   0  0  0  0  0  0  0  0  0  0  0  0
   -0.2167  -12.1055   18.5568 C   0  0  0  0  0  0  0  0  0  0  0  0
   -2.0661  -10.6994   18.1916 C   0  0  0  0  0  0  0  0  0  0  0  0
    5.2703   -7.5691   27.1123 C   0  0  0  0  0  0  0  0  0  0  0  0
    1.6204   -9.9887   17.2935 C   0  0  0  0  0  0  0  0  0  0  0  0
    1.8931   -7.9265   16.2047 C   0  0  0  0  0  0  0  0  0  0  0  0
    2.4396   -9.0801   16.7132 C   0  0  0  0  0  0  0  0  0  0  0  0
   -0.2575   -8.6234   16.8582 C   0  0  0  0  0  0  0  0  0  0  0  0
    4.0614   -7.0367   27.0106 N   0  0  0  0  0  0  0  0  0  0  0  0
   -2.9133  -11.6279   18.7578 C   0  0  0  0  0  0  0  0  0  0  0  0
    4.5688  -10.1291   29.5758 C   0  0  0  0  0  0  0  0  0  0  0  0
    2.1008   -9.0410   29.1852 N   0  0  0  0  0  0  0  0  0  0  0  0
    3.4829  -10.5697   30.2091 N   0  0  0  0  0  0  0  0  0  0  0  0
   -0.3363   -6.1172   27.5628 C   0  0  0  0  0  0  0  0  0  0  0  0
    3.0331   -7.4400   27.6362 C   0  0  0  0  0  0  0  0  0  0  0  0
    5.4553   -8.5933   27.9644 C   0  0  0  0  0  0  0  0  0  0  0  0
   -2.3870  -12.8440   19.2512 C   0  0  0  0  0  0  0  0  0  0  0  0
    0.5331   -7.6964   16.2751 C   0  0  0  0  0  0  0  0  0  0  0  0
   -0.6740  -10.8737   18.0482 C   0  0  0  0  0  0  0  0  0  0  0  0
    5.6751  -10.5870   29.7637 O   0  0  0  0  0  0  0  0  0  0  0  0
    1.7612   -5.6483   26.7172 C   0  0  0  0  0  0  0  0  0  0  0  0
    0.2221   -9.8326   17.4055 C   0  0  0  0  0  0  0  0  0  0  0  0
    4.3850   -9.0730   28.6745 C   0  0  0  0  0  0  0  0  0  0  0  0
  1  7  4  0
  1 22  4  0
  2 17  4  0
  2 20  4  0
  2 28  4  0
  3  6  1  0
  3 19  1  0
  4 19  1  0
  4 26  1  0
  5 17  4  0
  5 18  4  0
  6 20  1  0
  6 26  1  0
  7 24  4  0
  8 15  4  0
  8 24  4  0
  9 14  4  0
  9 21  4  0
 10 12  4  0
 10 27  4  0
 11 12  4  0
 11 23  4  0
 13 23  4  0
 13 27  4  0
 14 20  4  0
 15 22  4  0
 16 18  4  0
 16 25  2  0
 16 28  4  0
 21 28  4  0
 24 27  1  0
M  END
$$$$

 Created by Python create_sdf_string function

 28 31  0  0  0  0  0  0  0  0999 V2000
   -1.0054  -13.0622   19.1198 C   0  0  0  0  0  0  0  0  0  0  0  0
    3.1478   -8.5360   28.5161 C   0  0  0  0  0  0  0  0  0  0  0  0
    0.5798   -7.1906   27.9330 C   0  0  0  0  0  0  0  0  0  0  0  0
    0.3978   -5.1561   26.6955 C   0  0  0  0  0  0  0  0  0  0  0  0
    2.3063  -10.0533   30.0125 C   0  0  0  0  0  0  0  0  0  0  0  0
    1.8591   -6.8254   27.4685 N   0  0  0  0  0  0  0  0  0  0  0  0
   -0.2167  -12.1055   18.5568 C   0  0  0  0  0  0  0  0  0  0  0  0
   -2.0661  -10.6994   18.1916 C   0  0  0  0  0  0  0  0  0  0  0  0
    5.2703   -7.5691   27.1123 C   0  0  0  0  0  0  0  0  0  0  0  0
    1.6204   -9.9887   17.2935 C   0  0  0  0  0  0  0  0  0  0  0  0
    1.8931   -7.9265   16.2047 C   0  0  0  0  0  0  0  0  0  0  0  0
    2.4396   -9.0801   16.7132 C   0  0  0  0  0  0  0  0  0  0  0  0
   -0.2575   -8.6234   16.8582 C   0  0  0  0  0  0  0  0  0  0  0  0
    4.0614   -7.0367   27.0106 N   0  0  0  0  0  0  0  0  0  0  0  0
   -2.9133  -11.6279   18.7578 C   0  0  0  0  0  0  0  0  0  0  0  0
    4.5688  -10.1291   29.5758 C   0  0  0  0  0  0  0  0  0  0  0  0
    2.1008   -9.0410   29.1852 N   0  0  0  0  0  0  0  0  0  0  0  0
    3.4829  -10.5697   30.2091 N   0  0  0  0  0  0  0  0  0  0  0  0
   -0.3363   -6.1172   27.5628 C   0  0  0  0  0  0  0  0  0  0  0  0
    3.0331   -7.4400   27.6362 C   0  0  0  0  0  0  0  0  0  0  0  0
    5.4553   -8.5933   27.9644 C   0  0  0  0  0  0  0  0  0  0  0  0
   -2.3870  -12.8440   19.2512 C   0  0  0  0  0  0  0  0  0  0  0  0
    0.5331   -7.6964   16.2751 C   0  0  0  0  0  0  0  0  0  0  0  0
   -0.6740  -10.8737   18.0482 C   0  0  0  0  0  0  0  0  0  0  0  0
    5.6751  -10.5870   29.7637 O   0  0  0  0  0  0  0  0  0  0  0  0
    1.7612   -5.6483   26.7172 C   0  0  0  0  0  0  0  0  0  0  0  0
    0.2221   -9.8326   17.4055 C   0  0  0  0  0  0  0  0  0  0  0  0
    4.3850   -9.0730   28.6745 C   0  0  0  0  0  0  0  0  0  0  0  0
  1  7  4  0
  1 22  4  0
  2 17  4  0
  2 20  4  0
  2 28  4  0
  3  6  1  0
  3 19  1  0
  4 19  1  0
  4 26  1  0
  5 17  4  0
  5 18  4  0
  6 20  1  0
  6 26  1  0
  7 24  4  0
  8 15  4  0
  8 24  4  0
  9 14  4  0
  9 21  4  0
 10 12  4  0
 10 27  4  0
 11 12  4  0
 11 23  4  0
 13 23  4  0
 13 27  4  0
 14 20  4  0
 15 22  4  0
 16 18  4  0
 16 25  2  0
 16 28  4  0
 21 28  4  0
 24 27  1  0
M  END
$$$$

 Created by Python create_sdf_string function

 28 31  0  0  0  0  0  0  0  0999 V2000
   -1.0054  -13.0622   19.1198 C   0  0  0  0  0  0  0  0  0  0  0  0
    3.1478   -8.5360   28.5161 C   0  0  0  0  0  0  0  0  0  0  0  0
    0.5798   -7.1906   27.9330 C   0  0  0  0  0  0  0  0  0  0  0  0
    0.3978   -5.1561   26.6955 C   0  0  0  0  0  0  0  0  0  0  0  0
    2.3063  -10.0533   30.0125 C   0  0  0  0  0  0  0  0  0  0  0  0
    1.8591   -6.8254   27.4685 N   0  0  0  0  0  0  0  0  0  0  0  0
   -0.2167  -12.1055   18.5568 C   0  0  0  0  0  0  0  0  0  0  0  0
   -2.0661  -10.6994   18.1916 C   0  0  0  0  0  0  0  0  0  0  0  0
    5.2703   -7.5691   27.1123 C   0  0  0  0  0  0  0  0  0  0  0  0
    1.6204   -9.9887   17.2935 C   0  0  0  0  0  0  0  0  0  0  0  0
    1.8931   -7.9265   16.2047 C   0  0  0  0  0  0  0  0  0  0  0  0
    2.4396   -9.0801   16.7132 C   0  0  0  0  0  0  0  0  0  0  0  0
   -0.2575   -8.6234   16.8582 C   0  0  0  0  0  0  0  0  0  0  0  0
    4.0614   -7.0367   27.0106 N   0  0  0  0  0  0  0  0  0  0  0  0
   -2.9133  -11.6279   18.7578 C   0  0  0  0  0  0  0  0  0  0  0  0
    4.5688  -10.1291   29.5758 C   0  0  0  0  0  0  0  0  0  0  0  0
    2.1008   -9.0410   29.1852 N   0  0  0  0  0  0  0  0  0  0  0  0
    3.4829  -10.5697   30.2091 N   0  0  0  0  0  0  0  0  0  0  0  0
   -0.3363   -6.1172   27.5628 C   0  0  0  0  0  0  0  0  0  0  0  0
    3.0331   -7.4400   27.6362 C   0  0  0  0  0  0  0  0  0  0  0  0
    5.4553   -8.5933   27.9644 C   0  0  0  0  0  0  0  0  0  0  0  0
   -2.3870  -12.8440   19.2512 C   0  0  0  0  0  0  0  0  0  0  0  0
    0.5331   -7.6964   16.2751 C   0  0  0  0  0  0  0  0  0  0  0  0
   -0.6740  -10.8737   18.0482 C   0  0  0  0  0  0  0  0  0  0  0  0
    5.6751  -10.5870   29.7637 O   0  0  0  0  0  0  0  0  0  0  0  0
    1.7612   -5.6483   26.7172 C   0  0  0  0  0  0  0  0  0  0  0  0
    0.2221   -9.8326   17.4055 C   0  0  0  0  0  0  0  0  0  0  0  0
    4.3850   -9.0730   28.6745 C   0  0  0  0  0  0  0  0  0  0  0  0
  1  7  4  0
  1 22  4  0
  2 17  4  0
  2 20  4  0
  2 28  4  0
  3  6  1  0
  3 19  1  0
  4 19  1  0
  4 26  1  0
  5 17  4  0
  5 18  4  0
  6 20  1  0
  6 26  1  0
  7 24  4  0
  8 15  4  0
  8 24  4  0
  9 14  4  0
  9 21  4  0
 10 12  4  0
 10 27  4  0
 11 12  4  0
 11 23  4  0
 13 23  4  0
 13 27  4  0
 14 20  4  0
 15 22  4  0
 16 18  4  0
 16 25  2  0
 16 28  4  0
 21 28  4  0
 24 27  1  0
M  END
$$$$

 Created by Python create_sdf_string function

 28 31  0  0  0  0  0  0  0  0999 V2000
   -1.0054  -13.0622   19.1198 C   0  0  0  0  0  0  0  0  0  0  0  0
    3.1478   -8.5360   28.5161 C   0  0  0  0  0  0  0  0  0  0  0  0
    0.5798   -7.1906   27.9330 C   0  0  0  0  0  0  0  0  0  0  0  0
    0.3978   -5.1561   26.6955 C   0  0  0  0  0  0  0  0  0  0  0  0
    2.3063  -10.0533   30.0125 C   0  0  0  0  0  0  0  0  0  0  0  0
    1.8591   -6.8254   27.4685 N   0  0  0  0  0  0  0  0  0  0  0  0
   -0.2167  -12.1055   18.5568 C   0  0  0  0  0  0  0  0  0  0  0  0
   -2.0661  -10.6994   18.1916 C   0  0  0  0  0  0  0  0  0  0  0  0
    5.2703   -7.5691   27.1123 C   0  0  0  0  0  0  0  0  0  0  0  0
    1.6204   -9.9887   17.2935 C   0  0  0  0  0  0  0  0  0  0  0  0
    1.8931   -7.9265   16.2047 C   0  0  0  0  0  0  0  0  0  0  0  0
    2.4396   -9.0801   16.7132 C   0  0  0  0  0  0  0  0  0  0  0  0
   -0.2575   -8.6234   16.8582 C   0  0  0  0  0  0  0  0  0  0  0  0
    4.0614   -7.0367   27.0106 N   0  0  0  0  0  0  0  0  0  0  0  0
   -2.9133  -11.6279   18.7578 C   0  0  0  0  0  0  0  0  0  0  0  0
    4.5688  -10.1291   29.5758 C   0  0  0  0  0  0  0  0  0  0  0  0
    2.1008   -9.0410   29.1852 N   0  0  0  0  0  0  0  0  0  0  0  0
    3.4829  -10.5697   30.2091 N   0  0  0  0  0  0  0  0  0  0  0  0
   -0.3363   -6.1172   27.5628 C   0  0  0  0  0  0  0  0  0  0  0  0
    3.0331   -7.4400   27.6362 C   0  0  0  0  0  0  0  0  0  0  0  0
    5.4553   -8.5933   27.9644 C   0  0  0  0  0  0  0  0  0  0  0  0
   -2.3870  -12.8440   19.2512 C   0  0  0  0  0  0  0  0  0  0  0  0
    0.5331   -7.6964   16.2751 C   0  0  0  0  0  0  0  0  0  0  0  0
   -0.6740  -10.8737   18.0482 C   0  0  0  0  0  0  0  0  0  0  0  0
    5.6751  -10.5870   29.7637 O   0  0  0  0  0  0  0  0  0  0  0  0
    1.7612   -5.6483   26.7172 C   0  0  0  0  0  0  0  0  0  0  0  0
    0.2221   -9.8326   17.4055 C   0  0  0  0  0  0  0  0  0  0  0  0
    4.3850   -9.0730   28.6745 C   0  0  0  0  0  0  0  0  0  0  0  0
  1  7  4  0
  1 22  4  0
  2 17  4  0
  2 20  4  0
  2 28  4  0
  3  6  1  0
  3 19  1  0
  4 19  1  0
  4 26  1  0
  5 17  4  0
  5 18  4  0
  6 20  1  0
  6 26  1  0
  7 24  4  0
  8 15  4  0
  8 24  4  0
  9 14  4  0
  9 21  4  0
 10 12  4  0
 10 27  4  0
 11 12  4  0
 11 23  4  0
 13 23  4  0
 13 27  4  0
 14 20  4  0
 15 22  4  0
 16 18  4  0
 16 25  2  0
 16 28  4  0
 21 28  4  0
 24 27  1  0
M  END
$$$$

 Created by Python create_sdf_string function

 28 31  0  0  0  0  0  0  0  0999 V2000
   -1.0054  -13.0622   19.1198 C   0  0  0  0  0  0  0  0  0  0  0  0
    3.1478   -8.5360   28.5161 C   0  0  0  0  0  0  0  0  0  0  0  0
    0.5798   -7.1906   27.9330 C   0  0  0  0  0  0  0  0  0  0  0  0
    0.3978   -5.1561   26.6955 C   0  0  0  0  0  0  0  0  0  0  0  0
    2.3063  -10.0533   30.0125 C   0  0  0  0  0  0  0  0  0  0  0  0
    1.8591   -6.8254   27.4685 N   0  0  0  0  0  0  0  0  0  0  0  0
   -0.2167  -12.1055   18.5568 C   0  0  0  0  0  0  0  0  0  0  0  0
   -2.0661  -10.6994   18.1916 C   0  0  0  0  0  0  0  0  0  0  0  0
    5.2703   -7.5691   27.1123 C   0  0  0  0  0  0  0  0  0  0  0  0
    1.6204   -9.9887   17.2935 C   0  0  0  0  0  0  0  0  0  0  0  0
    1.8931   -7.9265   16.2047 C   0  0  0  0  0  0  0  0  0  0  0  0
    2.4396   -9.0801   16.7132 C   0  0  0  0  0  0  0  0  0  0  0  0
   -0.2575   -8.6234   16.8582 C   0  0  0  0  0  0  0  0  0  0  0  0
    4.0614   -7.0367   27.0106 N   0  0  0  0  0  0  0  0  0  0  0  0
   -2.9133  -11.6279   18.7578 C   0  0  0  0  0  0  0  0  0  0  0  0
    4.5688  -10.1291   29.5758 C   0  0  0  0  0  0  0  0  0  0  0  0
    2.1008   -9.0410   29.1852 N   0  0  0  0  0  0  0  0  0  0  0  0
    3.4829  -10.5697   30.2091 N   0  0  0  0  0  0  0  0  0  0  0  0
   -0.3363   -6.1172   27.5628 C   0  0  0  0  0  0  0  0  0  0  0  0
    3.0331   -7.4400   27.6362 C   0  0  0  0  0  0  0  0  0  0  0  0
    5.4553   -8.5933   27.9644 C   0  0  0  0  0  0  0  0  0  0  0  0
   -2.3870  -12.8440   19.2512 C   0  0  0  0  0  0  0  0  0  0  0  0
    0.5331   -7.6964   16.2751 C   0  0  0  0  0  0  0  0  0  0  0  0
   -0.6740  -10.8737   18.0482 C   0  0  0  0  0  0  0  0  0  0  0  0
    5.6751  -10.5870   29.7637 O   0  0  0  0  0  0  0  0  0  0  0  0
    1.7612   -5.6483   26.7172 C   0  0  0  0  0  0  0  0  0  0  0  0
    0.2221   -9.8326   17.4055 C   0  0  0  0  0  0  0  0  0  0  0  0
    4.3850   -9.0730   28.6745 C   0  0  0  0  0  0  0  0  0  0  0  0
  1  7  4  0
  1 22  4  0
  2 17  4  0
  2 20  4  0
  2 28  4  0
  3  6  1  0
  3 19  1  0
  4 19  1  0
  4 26  1  0
  5 17  4  0
  5 18  4  0
  6 20  1  0
  6 26  1  0
  7 24  4  0
  8 15  4  0
  8 24  4  0
  9 14  4  0
  9 21  4  0
 10 12  4  0
 10 27  4  0
 11 12  4  0
 11 23  4  0
 13 23  4  0
 13 27  4  0
 14 20  4  0
 15 22  4  0
 16 18  4  0
 16 25  2  0
 16 28  4  0
 21 28  4  0
 24 27  1  0
M  END
$$$$

 Created by Python create_sdf_string function

 28 31  0  0  0  0  0  0  0  0999 V2000
   -1.0054  -13.0622   19.1198 C   0  0  0  0  0  0  0  0  0  0  0  0
    3.1478   -8.5360   28.5161 C   0  0  0  0  0  0  0  0  0  0  0  0
    0.5798   -7.1906   27.9330 C   0  0  0  0  0  0  0  0  0  0  0  0
    0.3978   -5.1561   26.6955 C   0  0  0  0  0  0  0  0  0  0  0  0
    2.3063  -10.0533   30.0125 C   0  0  0  0  0  0  0  0  0  0  0  0
    1.8591   -6.8254   27.4685 N   0  0  0  0  0  0  0  0  0  0  0  0
   -0.2167  -12.1055   18.5568 C   0  0  0  0  0  0  0  0  0  0  0  0
   -2.0661  -10.6994   18.1916 C   0  0  0  0  0  0  0  0  0  0  0  0
    5.2703   -7.5691   27.1123 C   0  0  0  0  0  0  0  0  0  0  0  0
    1.6204   -9.9887   17.2935 C   0  0  0  0  0  0  0  0  0  0  0  0
    1.8931   -7.9265   16.2047 C   0  0  0  0  0  0  0  0  0  0  0  0
    2.4396   -9.0801   16.7132 C   0  0  0  0  0  0  0  0  0  0  0  0
   -0.2575   -8.6234   16.8582 C   0  0  0  0  0  0  0  0  0  0  0  0
    4.0614   -7.0367   27.0106 N   0  0  0  0  0  0  0  0  0  0  0  0
   -2.9133  -11.6279   18.7578 C   0  0  0  0  0  0  0  0  0  0  0  0
    4.5688  -10.1291   29.5758 C   0  0  0  0  0  0  0  0  0  0  0  0
    2.1008   -9.0410   29.1852 N   0  0  0  0  0  0  0  0  0  0  0  0
    3.4829  -10.5697   30.2091 N   0  0  0  0  0  0  0  0  0  0  0  0
   -0.3363   -6.1172   27.5628 C   0  0  0  0  0  0  0  0  0  0  0  0
    3.0331   -7.4400   27.6362 C   0  0  0  0  0  0  0  0  0  0  0  0
    5.4553   -8.5933   27.9644 C   0  0  0  0  0  0  0  0  0  0  0  0
   -2.3870  -12.8440   19.2512 C   0  0  0  0  0  0  0  0  0  0  0  0
    0.5331   -7.6964   16.2751 C   0  0  0  0  0  0  0  0  0  0  0  0
   -0.6740  -10.8737   18.0482 C   0  0  0  0  0  0  0  0  0  0  0  0
    5.6751  -10.5870   29.7637 O   0  0  0  0  0  0  0  0  0  0  0  0
    1.7612   -5.6483   26.7172 C   0  0  0  0  0  0  0  0  0  0  0  0
    0.2221   -9.8326   17.4055 C   0  0  0  0  0  0  0  0  0  0  0  0
    4.3850   -9.0730   28.6745 C   0  0  0  0  0  0  0  0  0  0  0  0
  1  7  4  0
  1 22  4  0
  2 17  4  0
  2 20  4  0
  2 28  4  0
  3  6  1  0
  3 19  1  0
  4 19  1  0
  4 26  1  0
  5 17  4  0
  5 18  4  0
  6 20  1  0
  6 26  1  0
  7 24  4  0
  8 15  4  0
  8 24  4  0
  9 14  4  0
  9 21  4  0
 10 12  4  0
 10 27  4  0
 11 12  4  0
 11 23  4  0
 13 23  4  0
 13 27  4  0
 14 20  4  0
 15 22  4  0
 16 18  4  0
 16 25  2  0
 16 28  4  0
 21 28  4  0
 24 27  1  0
M  END
$$$$

 Created by Python create_sdf_string function

 28 31  0  0  0  0  0  0  0  0999 V2000
   -1.0054  -13.0622   19.1198 C   0  0  0  0  0  0  0  0  0  0  0  0
    3.1478   -8.5360   28.5161 C   0  0  0  0  0  0  0  0  0  0  0  0
    0.5798   -7.1906   27.9330 C   0  0  0  0  0  0  0  0  0  0  0  0
    0.3978   -5.1561   26.6955 C   0  0  0  0  0  0  0  0  0  0  0  0
    2.3063  -10.0533   30.0125 C   0  0  0  0  0  0  0  0  0  0  0  0
    1.8591   -6.8254   27.4685 N   0  0  0  0  0  0  0  0  0  0  0  0
   -0.2167  -12.1055   18.5568 C   0  0  0  0  0  0  0  0  0  0  0  0
   -2.0661  -10.6994   18.1916 C   0  0  0  0  0  0  0  0  0  0  0  0
    5.2703   -7.5691   27.1123 C   0  0  0  0  0  0  0  0  0  0  0  0
    1.6204   -9.9887   17.2935 C   0  0  0  0  0  0  0  0  0  0  0  0
    1.8931   -7.9265   16.2047 C   0  0  0  0  0  0  0  0  0  0  0  0
    2.4396   -9.0801   16.7132 C   0  0  0  0  0  0  0  0  0  0  0  0
   -0.2575   -8.6234   16.8582 C   0  0  0  0  0  0  0  0  0  0  0  0
    4.0614   -7.0367   27.0106 N   0  0  0  0  0  0  0  0  0  0  0  0
   -2.9133  -11.6279   18.7578 C   0  0  0  0  0  0  0  0  0  0  0  0
    4.5688  -10.1291   29.5758 C   0  0  0  0  0  0  0  0  0  0  0  0
    2.1008   -9.0410   29.1852 N   0  0  0  0  0  0  0  0  0  0  0  0
    3.4829  -10.5697   30.2091 N   0  0  0  0  0  0  0  0  0  0  0  0
   -0.3363   -6.1172   27.5628 C   0  0  0  0  0  0  0  0  0  0  0  0
    3.0331   -7.4400   27.6362 C   0  0  0  0  0  0  0  0  0  0  0  0
    5.4553   -8.5933   27.9644 C   0  0  0  0  0  0  0  0  0  0  0  0
   -2.3870  -12.8440   19.2512 C   0  0  0  0  0  0  0  0  0  0  0  0
    0.5331   -7.6964   16.2751 C   0  0  0  0  0  0  0  0  0  0  0  0
   -0.6740  -10.8737   18.0482 C   0  0  0  0  0  0  0  0  0  0  0  0
    5.6751  -10.5870   29.7637 O   0  0  0  0  0  0  0  0  0  0  0  0
    1.7612   -5.6483   26.7172 C   0  0  0  0  0  0  0  0  0  0  0  0
    0.2221   -9.8326   17.4055 C   0  0  0  0  0  0  0  0  0  0  0  0
    4.3850   -9.0730   28.6745 C   0  0  0  0  0  0  0  0  0  0  0  0
  1  7  4  0
  1 22  4  0
  2 17  4  0
  2 20  4  0
  2 28  4  0
  3  6  1  0
  3 19  1  0
  4 19  1  0
  4 26  1  0
  5 17  4  0
  5 18  4  0
  6 20  1  0
  6 26  1  0
  7 24  4  0
  8 15  4  0
  8 24  4  0
  9 14  4  0
  9 21  4  0
 10 12  4  0
 10 27  4  0
 11 12  4  0
 11 23  4  0
 13 23  4  0
 13 27  4  0
 14 20  4  0
 15 22  4  0
 16 18  4  0
 16 25  2  0
 16 28  4  0
 21 28  4  0
 24 27  1  0
M  END
$$$$

 Created by Python create_sdf_string function

 28 31  0  0  0  0  0  0  0  0999 V2000
   -1.0054  -13.0622   19.1198 C   0  0  0  0  0  0  0  0  0  0  0  0
    3.1478   -8.5360   28.5161 C   0  0  0  0  0  0  0  0  0  0  0  0
    0.5798   -7.1906   27.9330 C   0  0  0  0  0  0  0  0  0  0  0  0
    0.3978   -5.1561   26.6955 C   0  0  0  0  0  0  0  0  0  0  0  0
    2.3063  -10.0533   30.0125 C   0  0  0  0  0  0  0  0  0  0  0  0
    1.8591   -6.8254   27.4685 N   0  0  0  0  0  0  0  0  0  0  0  0
   -0.2167  -12.1055   18.5568 C   0  0  0  0  0  0  0  0  0  0  0  0
   -2.0661  -10.6994   18.1916 C   0  0  0  0  0  0  0  0  0  0  0  0
    5.2703   -7.5691   27.1123 C   0  0  0  0  0  0  0  0  0  0  0  0
    1.6204   -9.9887   17.2935 C   0  0  0  0  0  0  0  0  0  0  0  0
    1.8931   -7.9265   16.2047 C   0  0  0  0  0  0  0  0  0  0  0  0
    2.4396   -9.0801   16.7132 C   0  0  0  0  0  0  0  0  0  0  0  0
   -0.2575   -8.6234   16.8582 C   0  0  0  0  0  0  0  0  0  0  0  0
    4.0614   -7.0367   27.0106 N   0  0  0  0  0  0  0  0  0  0  0  0
   -2.9133  -11.6279   18.7578 C   0  0  0  0  0  0  0  0  0  0  0  0
    4.5688  -10.1291   29.5758 C   0  0  0  0  0  0  0  0  0  0  0  0
    2.1008   -9.0410   29.1852 N   0  0  0  0  0  0  0  0  0  0  0  0
    3.4829  -10.5697   30.2091 N   0  0  0  0  0  0  0  0  0  0  0  0
   -0.3363   -6.1172   27.5628 C   0  0  0  0  0  0  0  0  0  0  0  0
    3.0331   -7.4400   27.6362 C   0  0  0  0  0  0  0  0  0  0  0  0
    5.4553   -8.5933   27.9644 C   0  0  0  0  0  0  0  0  0  0  0  0
   -2.3870  -12.8440   19.2512 C   0  0  0  0  0  0  0  0  0  0  0  0
    0.5331   -7.6964   16.2751 C   0  0  0  0  0  0  0  0  0  0  0  0
   -0.6740  -10.8737   18.0482 C   0  0  0  0  0  0  0  0  0  0  0  0
    5.6751  -10.5870   29.7637 O   0  0  0  0  0  0  0  0  0  0  0  0
    1.7612   -5.6483   26.7172 C   0  0  0  0  0  0  0  0  0  0  0  0
    0.2221   -9.8326   17.4055 C   0  0  0  0  0  0  0  0  0  0  0  0
    4.3850   -9.0730   28.6745 C   0  0  0  0  0  0  0  0  0  0  0  0
  1  7  4  0
  1 22  4  0
  2 17  4  0
  2 20  4  0
  2 28  4  0
  3  6  1  0
  3 19  1  0
  4 19  1  0
  4 26  1  0
  5 17  4  0
  5 18  4  0
  6 20  1  0
  6 26  1  0
  7 24  4  0
  8 15  4  0
  8 24  4  0
  9 14  4  0
  9 21  4  0
 10 12  4  0
 10 27  4  0
 11 12  4  0
 11 23  4  0
 13 23  4  0
 13 27  4  0
 14 20  4  0
 15 22  4  0
 16 18  4  0
 16 25  2  0
 16 28  4  0
 21 28  4  0
 24 27  1  0
M  END
$$$$

 Created by Python create_sdf_string function

 28 31  0  0  0  0  0  0  0  0999 V2000
   -1.0054  -13.0622   19.1198 C   0  0  0  0  0  0  0  0  0  0  0  0
    3.1478   -8.5360   28.5161 C   0  0  0  0  0  0  0  0  0  0  0  0
    0.5798   -7.1906   27.9330 C   0  0  0  0  0  0  0  0  0  0  0  0
    0.3978   -5.1561   26.6955 C   0  0  0  0  0  0  0  0  0  0  0  0
    2.3063  -10.0533   30.0125 C   0  0  0  0  0  0  0  0  0  0  0  0
    1.8591   -6.8254   27.4685 N   0  0  0  0  0  0  0  0  0  0  0  0
   -0.2167  -12.1055   18.5568 C   0  0  0  0  0  0  0  0  0  0  0  0
   -2.0661  -10.6994   18.1916 C   0  0  0  0  0  0  0  0  0  0  0  0
    5.2703   -7.5691   27.1123 C   0  0  0  0  0  0  0  0  0  0  0  0
    1.6204   -9.9887   17.2935 C   0  0  0  0  0  0  0  0  0  0  0  0
    1.8931   -7.9265   16.2047 C   0  0  0  0  0  0  0  0  0  0  0  0
    2.4396   -9.0801   16.7132 C   0  0  0  0  0  0  0  0  0  0  0  0
   -0.2575   -8.6234   16.8582 C   0  0  0  0  0  0  0  0  0  0  0  0
    4.0614   -7.0367   27.0106 N   0  0  0  0  0  0  0  0  0  0  0  0
   -2.9133  -11.6279   18.7578 C   0  0  0  0  0  0  0  0  0  0  0  0
    4.5688  -10.1291   29.5758 C   0  0  0  0  0  0  0  0  0  0  0  0
    2.1008   -9.0410   29.1852 N   0  0  0  0  0  0  0  0  0  0  0  0
    3.4829  -10.5697   30.2091 N   0  0  0  0  0  0  0  0  0  0  0  0
   -0.3363   -6.1172   27.5628 C   0  0  0  0  0  0  0  0  0  0  0  0
    3.0331   -7.4400   27.6362 C   0  0  0  0  0  0  0  0  0  0  0  0
    5.4553   -8.5933   27.9644 C   0  0  0  0  0  0  0  0  0  0  0  0
   -2.3870  -12.8440   19.2512 C   0  0  0  0  0  0  0  0  0  0  0  0
    0.5331   -7.6964   16.2751 C   0  0  0  0  0  0  0  0  0  0  0  0
   -0.6740  -10.8737   18.0482 C   0  0  0  0  0  0  0  0  0  0  0  0
    5.6751  -10.5870   29.7637 O   0  0  0  0  0  0  0  0  0  0  0  0
    1.7612   -5.6483   26.7172 C   0  0  0  0  0  0  0  0  0  0  0  0
    0.2221   -9.8326   17.4055 C   0  0  0  0  0  0  0  0  0  0  0  0
    4.3850   -9.0730   28.6745 C   0  0  0  0  0  0  0  0  0  0  0  0
  1  7  4  0
  1 22  4  0
  2 17  4  0
  2 20  4  0
  2 28  4  0
  3  6  1  0
  3 19  1  0
  4 19  1  0
  4 26  1  0
  5 17  4  0
  5 18  4  0
  6 20  1  0
  6 26  1  0
  7 24  4  0
  8 15  4  0
  8 24  4  0
  9 14  4  0
  9 21  4  0
 10 12  4  0
 10 27  4  0
 11 12  4  0
 11 23  4  0
 13 23  4  0
 13 27  4  0
 14 20  4  0
 15 22  4  0
 16 18  4  0
 16 25  2  0
 16 28  4  0
 21 28  4  0
 24 27  1  0
M  END
$$$$

 Created by Python create_sdf_string function

 28 31  0  0  0  0  0  0  0  0999 V2000
   -1.0054  -13.0622   19.1198 C   0  0  0  0  0  0  0  0  0  0  0  0
    3.1478   -8.5360   28.5161 C   0  0  0  0  0  0  0  0  0  0  0  0
    0.5798   -7.1906   27.9330 C   0  0  0  0  0  0  0  0  0  0  0  0
    0.3978   -5.1561   26.6955 C   0  0  0  0  0  0  0  0  0  0  0  0
    2.3063  -10.0533   30.0125 C   0  0  0  0  0  0  0  0  0  0  0  0
    1.8591   -6.8254   27.4685 N   0  0  0  0  0  0  0  0  0  0  0  0
   -0.2167  -12.1055   18.5568 C   0  0  0  0  0  0  0  0  0  0  0  0
   -2.0661  -10.6994   18.1916 C   0  0  0  0  0  0  0  0  0  0  0  0
    5.2703   -7.5691   27.1123 C   0  0  0  0  0  0  0  0  0  0  0  0
    1.6204   -9.9887   17.2935 C   0  0  0  0  0  0  0  0  0  0  0  0
    1.8931   -7.9265   16.2047 C   0  0  0  0  0  0  0  0  0  0  0  0
    2.4396   -9.0801   16.7132 C   0  0  0  0  0  0  0  0  0  0  0  0
   -0.2575   -8.6234   16.8582 C   0  0  0  0  0  0  0  0  0  0  0  0
    4.0614   -7.0367   27.0106 N   0  0  0  0  0  0  0  0  0  0  0  0
   -2.9133  -11.6279   18.7578 C   0  0  0  0  0  0  0  0  0  0  0  0
    4.5688  -10.1291   29.5758 C   0  0  0  0  0  0  0  0  0  0  0  0
    2.1008   -9.0410   29.1852 N   0  0  0  0  0  0  0  0  0  0  0  0
    3.4829  -10.5697   30.2091 N   0  0  0  0  0  0  0  0  0  0  0  0
   -0.3363   -6.1172   27.5628 C   0  0  0  0  0  0  0  0  0  0  0  0
    3.0331   -7.4400   27.6362 C   0  0  0  0  0  0  0  0  0  0  0  0
    5.4553   -8.5933   27.9644 C   0  0  0  0  0  0  0  0  0  0  0  0
   -2.3870  -12.8440   19.2512 C   0  0  0  0  0  0  0  0  0  0  0  0
    0.5331   -7.6964   16.2751 C   0  0  0  0  0  0  0  0  0  0  0  0
   -0.6740  -10.8737   18.0482 C   0  0  0  0  0  0  0  0  0  0  0  0
    5.6751  -10.5870   29.7637 O   0  0  0  0  0  0  0  0  0  0  0  0
    1.7612   -5.6483   26.7172 C   0  0  0  0  0  0  0  0  0  0  0  0
    0.2221   -9.8326   17.4055 C   0  0  0  0  0  0  0  0  0  0  0  0
    4.3850   -9.0730   28.6745 C   0  0  0  0  0  0  0  0  0  0  0  0
  1  7  4  0
  1 22  4  0
  2 17  4  0
  2 20  4  0
  2 28  4  0
  3  6  1  0
  3 19  1  0
  4 19  1  0
  4 26  1  0
  5 17  4  0
  5 18  4  0
  6 20  1  0
  6 26  1  0
  7 24  4  0
  8 15  4  0
  8 24  4  0
  9 14  4  0
  9 21  4  0
 10 12  4  0
 10 27  4  0
 11 12  4  0
 11 23  4  0
 13 23  4  0
 13 27  4  0
 14 20  4  0
 15 22  4  0
 16 18  4  0
 16 25  2  0
 16 28  4  0
 21 28  4  0
 24 27  1  0
M  END
$$$$

 Created by Python create_sdf_string function

 28 31  0  0  0  0  0  0  0  0999 V2000
   -1.0054  -13.0622   19.1198 C   0  0  0  0  0  0  0  0  0  0  0  0
    3.1478   -8.5360   28.5161 C   0  0  0  0  0  0  0  0  0  0  0  0
    0.5798   -7.1906   27.9330 C   0  0  0  0  0  0  0  0  0  0  0  0
    0.3978   -5.1561   26.6955 C   0  0  0  0  0  0  0  0  0  0  0  0
    2.3063  -10.0533   30.0125 C   0  0  0  0  0  0  0  0  0  0  0  0
    1.8591   -6.8254   27.4685 N   0  0  0  0  0  0  0  0  0  0  0  0
   -0.2167  -12.1055   18.5568 C   0  0  0  0  0  0  0  0  0  0  0  0
   -2.0661  -10.6994   18.1916 C   0  0  0  0  0  0  0  0  0  0  0  0
    5.2703   -7.5691   27.1123 C   0  0  0  0  0  0  0  0  0  0  0  0
    1.6204   -9.9887   17.2935 C   0  0  0  0  0  0  0  0  0  0  0  0
    1.8931   -7.9265   16.2047 C   0  0  0  0  0  0  0  0  0  0  0  0
    2.4396   -9.0801   16.7132 C   0  0  0  0  0  0  0  0  0  0  0  0
   -0.2575   -8.6234   16.8582 C   0  0  0  0  0  0  0  0  0  0  0  0
    4.0614   -7.0367   27.0106 N   0  0  0  0  0  0  0  0  0  0  0  0
   -2.9133  -11.6279   18.7578 C   0  0  0  0  0  0  0  0  0  0  0  0
    4.5688  -10.1291   29.5758 C   0  0  0  0  0  0  0  0  0  0  0  0
    2.1008   -9.0410   29.1852 N   0  0  0  0  0  0  0  0  0  0  0  0
    3.4829  -10.5697   30.2091 N   0  0  0  0  0  0  0  0  0  0  0  0
   -0.3363   -6.1172   27.5628 C   0  0  0  0  0  0  0  0  0  0  0  0
    3.0331   -7.4400   27.6362 C   0  0  0  0  0  0  0  0  0  0  0  0
    5.4553   -8.5933   27.9644 C   0  0  0  0  0  0  0  0  0  0  0  0
   -2.3870  -12.8440   19.2512 C   0  0  0  0  0  0  0  0  0  0  0  0
    0.5331   -7.6964   16.2751 C   0  0  0  0  0  0  0  0  0  0  0  0
   -0.6740  -10.8737   18.0482 C   0  0  0  0  0  0  0  0  0  0  0  0
    5.6751  -10.5870   29.7637 O   0  0  0  0  0  0  0  0  0  0  0  0
    1.7612   -5.6483   26.7172 C   0  0  0  0  0  0  0  0  0  0  0  0
    0.2221   -9.8326   17.4055 C   0  0  0  0  0  0  0  0  0  0  0  0
    4.3850   -9.0730   28.6745 C   0  0  0  0  0  0  0  0  0  0  0  0
  1  7  4  0
  1 22  4  0
  2 17  4  0
  2 20  4  0
  2 28  4  0
  3  6  1  0
  3 19  1  0
  4 19  1  0
  4 26  1  0
  5 17  4  0
  5 18  4  0
  6 20  1  0
  6 26  1  0
  7 24  4  0
  8 15  4  0
  8 24  4  0
  9 14  4  0
  9 21  4  0
 10 12  4  0
 10 27  4  0
 11 12  4  0
 11 23  4  0
 13 23  4  0
 13 27  4  0
 14 20  4  0
 15 22  4  0
 16 18  4  0
 16 25  2  0
 16 28  4  0
 21 28  4  0
 24 27  1  0
M  END
$$$$

 Created by Python create_sdf_string function

 28 31  0  0  0  0  0  0  0  0999 V2000
   -1.0054  -13.0622   19.1198 C   0  0  0  0  0  0  0  0  0  0  0  0
    3.1478   -8.5360   28.5161 C   0  0  0  0  0  0  0  0  0  0  0  0
    0.5798   -7.1906   27.9330 C   0  0  0  0  0  0  0  0  0  0  0  0
    0.3978   -5.1561   26.6955 C   0  0  0  0  0  0  0  0  0  0  0  0
    2.3063  -10.0533   30.0125 C   0  0  0  0  0  0  0  0  0  0  0  0
    1.8591   -6.8254   27.4685 N   0  0  0  0  0  0  0  0  0  0  0  0
   -0.2167  -12.1055   18.5568 C   0  0  0  0  0  0  0  0  0  0  0  0
   -2.0661  -10.6994   18.1916 C   0  0  0  0  0  0  0  0  0  0  0  0
    5.2703   -7.5691   27.1123 C   0  0  0  0  0  0  0  0  0  0  0  0
    1.6204   -9.9887   17.2935 C   0  0  0  0  0  0  0  0  0  0  0  0
    1.8931   -7.9265   16.2047 C   0  0  0  0  0  0  0  0  0  0  0  0
    2.4396   -9.0801   16.7132 C   0  0  0  0  0  0  0  0  0  0  0  0
   -0.2575   -8.6234   16.8582 C   0  0  0  0  0  0  0  0  0  0  0  0
    4.0614   -7.0367   27.0106 N   0  0  0  0  0  0  0  0  0  0  0  0
   -2.9133  -11.6279   18.7578 C   0  0  0  0  0  0  0  0  0  0  0  0
    4.5688  -10.1291   29.5758 C   0  0  0  0  0  0  0  0  0  0  0  0
    2.1008   -9.0410   29.1852 N   0  0  0  0  0  0  0  0  0  0  0  0
    3.4829  -10.5697   30.2091 N   0  0  0  0  0  0  0  0  0  0  0  0
   -0.3363   -6.1172   27.5628 C   0  0  0  0  0  0  0  0  0  0  0  0
    3.0331   -7.4400   27.6362 C   0  0  0  0  0  0  0  0  0  0  0  0
    5.4553   -8.5933   27.9644 C   0  0  0  0  0  0  0  0  0  0  0  0
   -2.3870  -12.8440   19.2512 C   0  0  0  0  0  0  0  0  0  0  0  0
    0.5331   -7.6964   16.2751 C   0  0  0  0  0  0  0  0  0  0  0  0
   -0.6740  -10.8737   18.0482 C   0  0  0  0  0  0  0  0  0  0  0  0
    5.6751  -10.5870   29.7637 O   0  0  0  0  0  0  0  0  0  0  0  0
    1.7612   -5.6483   26.7172 C   0  0  0  0  0  0  0  0  0  0  0  0
    0.2221   -9.8326   17.4055 C   0  0  0  0  0  0  0  0  0  0  0  0
    4.3850   -9.0730   28.6745 C   0  0  0  0  0  0  0  0  0  0  0  0
  1  7  4  0
  1 22  4  0
  2 17  4  0
  2 20  4  0
  2 28  4  0
  3  6  1  0
  3 19  1  0
  4 19  1  0
  4 26  1  0
  5 17  4  0
  5 18  4  0
  6 20  1  0
  6 26  1  0
  7 24  4  0
  8 15  4  0
  8 24  4  0
  9 14  4  0
  9 21  4  0
 10 12  4  0
 10 27  4  0
 11 12  4  0
 11 23  4  0
 13 23  4  0
 13 27  4  0
 14 20  4  0
 15 22  4  0
 16 18  4  0
 16 25  2  0
 16 28  4  0
 21 28  4  0
 24 27  1  0
M  END
$$$$

 Created by Python create_sdf_string function

 28 31  0  0  0  0  0  0  0  0999 V2000
   -1.0054  -13.0622   19.1198 C   0  0  0  0  0  0  0  0  0  0  0  0
    3.1478   -8.5360   28.5161 C   0  0  0  0  0  0  0  0  0  0  0  0
    0.5798   -7.1906   27.9330 C   0  0  0  0  0  0  0  0  0  0  0  0
    0.3978   -5.1561   26.6955 C   0  0  0  0  0  0  0  0  0  0  0  0
    2.3063  -10.0533   30.0125 C   0  0  0  0  0  0  0  0  0  0  0  0
    1.8591   -6.8254   27.4685 N   0  0  0  0  0  0  0  0  0  0  0  0
   -0.2167  -12.1055   18.5568 C   0  0  0  0  0  0  0  0  0  0  0  0
   -2.0661  -10.6994   18.1916 C   0  0  0  0  0  0  0  0  0  0  0  0
    5.2703   -7.5691   27.1123 C   0  0  0  0  0  0  0  0  0  0  0  0
    1.6204   -9.9887   17.2935 C   0  0  0  0  0  0  0  0  0  0  0  0
    1.8931   -7.9265   16.2047 C   0  0  0  0  0  0  0  0  0  0  0  0
    2.4396   -9.0801   16.7132 C   0  0  0  0  0  0  0  0  0  0  0  0
   -0.2575   -8.6234   16.8582 C   0  0  0  0  0  0  0  0  0  0  0  0
    4.0614   -7.0367   27.0106 N   0  0  0  0  0  0  0  0  0  0  0  0
   -2.9133  -11.6279   18.7578 C   0  0  0  0  0  0  0  0  0  0  0  0
    4.5688  -10.1291   29.5758 C   0  0  0  0  0  0  0  0  0  0  0  0
    2.1008   -9.0410   29.1852 N   0  0  0  0  0  0  0  0  0  0  0  0
    3.4829  -10.5697   30.2091 N   0  0  0  0  0  0  0  0  0  0  0  0
   -0.3363   -6.1172   27.5628 C   0  0  0  0  0  0  0  0  0  0  0  0
    3.0331   -7.4400   27.6362 C   0  0  0  0  0  0  0  0  0  0  0  0
    5.4553   -8.5933   27.9644 C   0  0  0  0  0  0  0  0  0  0  0  0
   -2.3870  -12.8440   19.2512 C   0  0  0  0  0  0  0  0  0  0  0  0
    0.5331   -7.6964   16.2751 C   0  0  0  0  0  0  0  0  0  0  0  0
   -0.6740  -10.8737   18.0482 C   0  0  0  0  0  0  0  0  0  0  0  0
    5.6751  -10.5870   29.7637 O   0  0  0  0  0  0  0  0  0  0  0  0
    1.7612   -5.6483   26.7172 C   0  0  0  0  0  0  0  0  0  0  0  0
    0.2221   -9.8326   17.4055 C   0  0  0  0  0  0  0  0  0  0  0  0
    4.3850   -9.0730   28.6745 C   0  0  0  0  0  0  0  0  0  0  0  0
  1  7  4  0
  1 22  4  0
  2 17  4  0
  2 20  4  0
  2 28  4  0
  3  6  1  0
  3 19  1  0
  4 19  1  0
  4 26  1  0
  5 17  4  0
  5 18  4  0
  6 20  1  0
  6 26  1  0
  7 24  4  0
  8 15  4  0
  8 24  4  0
  9 14  4  0
  9 21  4  0
 10 12  4  0
 10 27  4  0
 11 12  4  0
 11 23  4  0
 13 23  4  0
 13 27  4  0
 14 20  4  0
 15 22  4  0
 16 18  4  0
 16 25  2  0
 16 28  4  0
 21 28  4  0
 24 27  1  0
M  END
$$$$

 Created by Python create_sdf_string function

 28 31  0  0  0  0  0  0  0  0999 V2000
   -1.0054  -13.0622   19.1198 C   0  0  0  0  0  0  0  0  0  0  0  0
    3.1478   -8.5360   28.5161 C   0  0  0  0  0  0  0  0  0  0  0  0
    0.5798   -7.1906   27.9330 C   0  0  0  0  0  0  0  0  0  0  0  0
    0.3978   -5.1561   26.6955 C   0  0  0  0  0  0  0  0  0  0  0  0
    2.3063  -10.0533   30.0125 C   0  0  0  0  0  0  0  0  0  0  0  0
    1.8591   -6.8254   27.4685 N   0  0  0  0  0  0  0  0  0  0  0  0
   -0.2167  -12.1055   18.5568 C   0  0  0  0  0  0  0  0  0  0  0  0
   -2.0661  -10.6994   18.1916 C   0  0  0  0  0  0  0  0  0  0  0  0
    5.2703   -7.5691   27.1123 C   0  0  0  0  0  0  0  0  0  0  0  0
    1.6204   -9.9887   17.2935 C   0  0  0  0  0  0  0  0  0  0  0  0
    1.8931   -7.9265   16.2047 C   0  0  0  0  0  0  0  0  0  0  0  0
    2.4396   -9.0801   16.7132 C   0  0  0  0  0  0  0  0  0  0  0  0
   -0.2575   -8.6234   16.8582 C   0  0  0  0  0  0  0  0  0  0  0  0
    4.0614   -7.0367   27.0106 N   0  0  0  0  0  0  0  0  0  0  0  0
   -2.9133  -11.6279   18.7578 C   0  0  0  0  0  0  0  0  0  0  0  0
    4.5688  -10.1291   29.5758 C   0  0  0  0  0  0  0  0  0  0  0  0
    2.1008   -9.0410   29.1852 N   0  0  0  0  0  0  0  0  0  0  0  0
    3.4829  -10.5697   30.2091 N   0  0  0  0  0  0  0  0  0  0  0  0
   -0.3363   -6.1172   27.5628 C   0  0  0  0  0  0  0  0  0  0  0  0
    3.0331   -7.4400   27.6362 C   0  0  0  0  0  0  0  0  0  0  0  0
    5.4553   -8.5933   27.9644 C   0  0  0  0  0  0  0  0  0  0  0  0
   -2.3870  -12.8440   19.2512 C   0  0  0  0  0  0  0  0  0  0  0  0
    0.5331   -7.6964   16.2751 C   0  0  0  0  0  0  0  0  0  0  0  0
   -0.6740  -10.8737   18.0482 C   0  0  0  0  0  0  0  0  0  0  0  0
    5.6751  -10.5870   29.7637 O   0  0  0  0  0  0  0  0  0  0  0  0
    1.7612   -5.6483   26.7172 C   0  0  0  0  0  0  0  0  0  0  0  0
    0.2221   -9.8326   17.4055 C   0  0  0  0  0  0  0  0  0  0  0  0
    4.3850   -9.0730   28.6745 C   0  0  0  0  0  0  0  0  0  0  0  0
  1  7  4  0
  1 22  4  0
  2 17  4  0
  2 20  4  0
  2 28  4  0
  3  6  1  0
  3 19  1  0
  4 19  1  0
  4 26  1  0
  5 17  4  0
  5 18  4  0
  6 20  1  0
  6 26  1  0
  7 24  4  0
  8 15  4  0
  8 24  4  0
  9 14  4  0
  9 21  4  0
 10 12  4  0
 10 27  4  0
 11 12  4  0
 11 23  4  0
 13 23  4  0
 13 27  4  0
 14 20  4  0
 15 22  4  0
 16 18  4  0
 16 25  2  0
 16 28  4  0
 21 28  4  0
 24 27  1  0
M  END
$$$$

 Created by Python create_sdf_string function

 28 31  0  0  0  0  0  0  0  0999 V2000
   -1.0054  -13.0622   19.1198 C   0  0  0  0  0  0  0  0  0  0  0  0
    3.1478   -8.5360   28.5161 C   0  0  0  0  0  0  0  0  0  0  0  0
    0.5798   -7.1906   27.9330 C   0  0  0  0  0  0  0  0  0  0  0  0
    0.3978   -5.1561   26.6955 C   0  0  0  0  0  0  0  0  0  0  0  0
    2.3063  -10.0533   30.0125 C   0  0  0  0  0  0  0  0  0  0  0  0
    1.8591   -6.8254   27.4685 N   0  0  0  0  0  0  0  0  0  0  0  0
   -0.2167  -12.1055   18.5568 C   0  0  0  0  0  0  0  0  0  0  0  0
   -2.0661  -10.6994   18.1916 C   0  0  0  0  0  0  0  0  0  0  0  0
    5.2703   -7.5691   27.1123 C   0  0  0  0  0  0  0  0  0  0  0  0
    1.6204   -9.9887   17.2935 C   0  0  0  0  0  0  0  0  0  0  0  0
    1.8931   -7.9265   16.2047 C   0  0  0  0  0  0  0  0  0  0  0  0
    2.4396   -9.0801   16.7132 C   0  0  0  0  0  0  0  0  0  0  0  0
   -0.2575   -8.6234   16.8582 C   0  0  0  0  0  0  0  0  0  0  0  0
    4.0614   -7.0367   27.0106 N   0  0  0  0  0  0  0  0  0  0  0  0
   -2.9133  -11.6279   18.7578 C   0  0  0  0  0  0  0  0  0  0  0  0
    4.5688  -10.1291   29.5758 C   0  0  0  0  0  0  0  0  0  0  0  0
    2.1008   -9.0410   29.1852 N   0  0  0  0  0  0  0  0  0  0  0  0
    3.4829  -10.5697   30.2091 N   0  0  0  0  0  0  0  0  0  0  0  0
   -0.3363   -6.1172   27.5628 C   0  0  0  0  0  0  0  0  0  0  0  0
    3.0331   -7.4400   27.6362 C   0  0  0  0  0  0  0  0  0  0  0  0
    5.4553   -8.5933   27.9644 C   0  0  0  0  0  0  0  0  0  0  0  0
   -2.3870  -12.8440   19.2512 C   0  0  0  0  0  0  0  0  0  0  0  0
    0.5331   -7.6964   16.2751 C   0  0  0  0  0  0  0  0  0  0  0  0
   -0.6740  -10.8737   18.0482 C   0  0  0  0  0  0  0  0  0  0  0  0
    5.6751  -10.5870   29.7637 O   0  0  0  0  0  0  0  0  0  0  0  0
    1.7612   -5.6483   26.7172 C   0  0  0  0  0  0  0  0  0  0  0  0
    0.2221   -9.8326   17.4055 C   0  0  0  0  0  0  0  0  0  0  0  0
    4.3850   -9.0730   28.6745 C   0  0  0  0  0  0  0  0  0  0  0  0
  1  7  4  0
  1 22  4  0
  2 17  4  0
  2 20  4  0
  2 28  4  0
  3  6  1  0
  3 19  1  0
  4 19  1  0
  4 26  1  0
  5 17  4  0
  5 18  4  0
  6 20  1  0
  6 26  1  0
  7 24  4  0
  8 15  4  0
  8 24  4  0
  9 14  4  0
  9 21  4  0
 10 12  4  0
 10 27  4  0
 11 12  4  0
 11 23  4  0
 13 23  4  0
 13 27  4  0
 14 20  4  0
 15 22  4  0
 16 18  4  0
 16 25  2  0
 16 28  4  0
 21 28  4  0
 24 27  1  0
M  END
$$$$

 Created by Python create_sdf_string function

 28 31  0  0  0  0  0  0  0  0999 V2000
   -1.0054  -13.0622   19.1198 C   0  0  0  0  0  0  0  0  0  0  0  0
    3.1478   -8.5360   28.5161 C   0  0  0  0  0  0  0  0  0  0  0  0
    0.5798   -7.1906   27.9330 C   0  0  0  0  0  0  0  0  0  0  0  0
    0.3978   -5.1561   26.6955 C   0  0  0  0  0  0  0  0  0  0  0  0
    2.3063  -10.0533   30.0125 C   0  0  0  0  0  0  0  0  0  0  0  0
    1.8591   -6.8254   27.4685 N   0  0  0  0  0  0  0  0  0  0  0  0
   -0.2167  -12.1055   18.5568 C   0  0  0  0  0  0  0  0  0  0  0  0
   -2.0661  -10.6994   18.1916 C   0  0  0  0  0  0  0  0  0  0  0  0
    5.2703   -7.5691   27.1123 C   0  0  0  0  0  0  0  0  0  0  0  0
    1.6204   -9.9887   17.2935 C   0  0  0  0  0  0  0  0  0  0  0  0
    1.8931   -7.9265   16.2047 C   0  0  0  0  0  0  0  0  0  0  0  0
    2.4396   -9.0801   16.7132 C   0  0  0  0  0  0  0  0  0  0  0  0
   -0.2575   -8.6234   16.8582 C   0  0  0  0  0  0  0  0  0  0  0  0
    4.0614   -7.0367   27.0106 N   0  0  0  0  0  0  0  0  0  0  0  0
   -2.9133  -11.6279   18.7578 C   0  0  0  0  0  0  0  0  0  0  0  0
    4.5688  -10.1291   29.5758 C   0  0  0  0  0  0  0  0  0  0  0  0
    2.1008   -9.0410   29.1852 N   0  0  0  0  0  0  0  0  0  0  0  0
    3.4829  -10.5697   30.2091 N   0  0  0  0  0  0  0  0  0  0  0  0
   -0.3363   -6.1172   27.5628 C   0  0  0  0  0  0  0  0  0  0  0  0
    3.0331   -7.4400   27.6362 C   0  0  0  0  0  0  0  0  0  0  0  0
    5.4553   -8.5933   27.9644 C   0  0  0  0  0  0  0  0  0  0  0  0
   -2.3870  -12.8440   19.2512 C   0  0  0  0  0  0  0  0  0  0  0  0
    0.5331   -7.6964   16.2751 C   0  0  0  0  0  0  0  0  0  0  0  0
   -0.6740  -10.8737   18.0482 C   0  0  0  0  0  0  0  0  0  0  0  0
    5.6751  -10.5870   29.7637 O   0  0  0  0  0  0  0  0  0  0  0  0
    1.7612   -5.6483   26.7172 C   0  0  0  0  0  0  0  0  0  0  0  0
    0.2221   -9.8326   17.4055 C   0  0  0  0  0  0  0  0  0  0  0  0
    4.3850   -9.0730   28.6745 C   0  0  0  0  0  0  0  0  0  0  0  0
  1  7  4  0
  1 22  4  0
  2 17  4  0
  2 20  4  0
  2 28  4  0
  3  6  1  0
  3 19  1  0
  4 19  1  0
  4 26  1  0
  5 17  4  0
  5 18  4  0
  6 20  1  0
  6 26  1  0
  7 24  4  0
  8 15  4  0
  8 24  4  0
  9 14  4  0
  9 21  4  0
 10 12  4  0
 10 27  4  0
 11 12  4  0
 11 23  4  0
 13 23  4  0
 13 27  4  0
 14 20  4  0
 15 22  4  0
 16 18  4  0
 16 25  2  0
 16 28  4  0
 21 28  4  0
 24 27  1  0
M  END
$$$$

 Created by Python create_sdf_string function

 28 31  0  0  0  0  0  0  0  0999 V2000
   -1.0054  -13.0622   19.1198 C   0  0  0  0  0  0  0  0  0  0  0  0
    3.1478   -8.5360   28.5161 C   0  0  0  0  0  0  0  0  0  0  0  0
    0.5798   -7.1906   27.9330 C   0  0  0  0  0  0  0  0  0  0  0  0
    0.3978   -5.1561   26.6955 C   0  0  0  0  0  0  0  0  0  0  0  0
    2.3063  -10.0533   30.0125 C   0  0  0  0  0  0  0  0  0  0  0  0
    1.8591   -6.8254   27.4685 N   0  0  0  0  0  0  0  0  0  0  0  0
   -0.2167  -12.1055   18.5568 C   0  0  0  0  0  0  0  0  0  0  0  0
   -2.0661  -10.6994   18.1916 C   0  0  0  0  0  0  0  0  0  0  0  0
    5.2703   -7.5691   27.1123 C   0  0  0  0  0  0  0  0  0  0  0  0
    1.6204   -9.9887   17.2935 C   0  0  0  0  0  0  0  0  0  0  0  0
    1.8931   -7.9265   16.2047 C   0  0  0  0  0  0  0  0  0  0  0  0
    2.4396   -9.0801   16.7132 C   0  0  0  0  0  0  0  0  0  0  0  0
   -0.2575   -8.6234   16.8582 C   0  0  0  0  0  0  0  0  0  0  0  0
    4.0614   -7.0367   27.0106 N   0  0  0  0  0  0  0  0  0  0  0  0
   -2.9133  -11.6279   18.7578 C   0  0  0  0  0  0  0  0  0  0  0  0
    4.5688  -10.1291   29.5758 C   0  0  0  0  0  0  0  0  0  0  0  0
    2.1008   -9.0410   29.1852 N   0  0  0  0  0  0  0  0  0  0  0  0
    3.4829  -10.5697   30.2091 N   0  0  0  0  0  0  0  0  0  0  0  0
   -0.3363   -6.1172   27.5628 C   0  0  0  0  0  0  0  0  0  0  0  0
    3.0331   -7.4400   27.6362 C   0  0  0  0  0  0  0  0  0  0  0  0
    5.4553   -8.5933   27.9644 C   0  0  0  0  0  0  0  0  0  0  0  0
   -2.3870  -12.8440   19.2512 C   0  0  0  0  0  0  0  0  0  0  0  0
    0.5331   -7.6964   16.2751 C   0  0  0  0  0  0  0  0  0  0  0  0
   -0.6740  -10.8737   18.0482 C   0  0  0  0  0  0  0  0  0  0  0  0
    5.6751  -10.5870   29.7637 O   0  0  0  0  0  0  0  0  0  0  0  0
    1.7612   -5.6483   26.7172 C   0  0  0  0  0  0  0  0  0  0  0  0
    0.2221   -9.8326   17.4055 C   0  0  0  0  0  0  0  0  0  0  0  0
    4.3850   -9.0730   28.6745 C   0  0  0  0  0  0  0  0  0  0  0  0
  1  7  4  0
  1 22  4  0
  2 17  4  0
  2 20  4  0
  2 28  4  0
  3  6  1  0
  3 19  1  0
  4 19  1  0
  4 26  1  0
  5 17  4  0
  5 18  4  0
  6 20  1  0
  6 26  1  0
  7 24  4  0
  8 15  4  0
  8 24  4  0
  9 14  4  0
  9 21  4  0
 10 12  4  0
 10 27  4  0
 11 12  4  0
 11 23  4  0
 13 23  4  0
 13 27  4  0
 14 20  4  0
 15 22  4  0
 16 18  4  0
 16 25  2  0
 16 28  4  0
 21 28  4  0
 24 27  1  0
M  END
$$$$

 Created by Python create_sdf_string function

 28 31  0  0  0  0  0  0  0  0999 V2000
   -1.0054  -13.0622   19.1198 C   0  0  0  0  0  0  0  0  0  0  0  0
    3.1478   -8.5360   28.5161 C   0  0  0  0  0  0  0  0  0  0  0  0
    0.5798   -7.1906   27.9330 C   0  0  0  0  0  0  0  0  0  0  0  0
    0.3978   -5.1561   26.6955 C   0  0  0  0  0  0  0  0  0  0  0  0
    2.3063  -10.0533   30.0125 C   0  0  0  0  0  0  0  0  0  0  0  0
    1.8591   -6.8254   27.4685 N   0  0  0  0  0  0  0  0  0  0  0  0
   -0.2167  -12.1055   18.5568 C   0  0  0  0  0  0  0  0  0  0  0  0
   -2.0661  -10.6994   18.1916 C   0  0  0  0  0  0  0  0  0  0  0  0
    5.2703   -7.5691   27.1123 C   0  0  0  0  0  0  0  0  0  0  0  0
    1.6204   -9.9887   17.2935 C   0  0  0  0  0  0  0  0  0  0  0  0
    1.8931   -7.9265   16.2047 C   0  0  0  0  0  0  0  0  0  0  0  0
    2.4396   -9.0801   16.7132 C   0  0  0  0  0  0  0  0  0  0  0  0
   -0.2575   -8.6234   16.8582 C   0  0  0  0  0  0  0  0  0  0  0  0
    4.0614   -7.0367   27.0106 N   0  0  0  0  0  0  0  0  0  0  0  0
   -2.9133  -11.6279   18.7578 C   0  0  0  0  0  0  0  0  0  0  0  0
    4.5688  -10.1291   29.5758 C   0  0  0  0  0  0  0  0  0  0  0  0
    2.1008   -9.0410   29.1852 N   0  0  0  0  0  0  0  0  0  0  0  0
    3.4829  -10.5697   30.2091 N   0  0  0  0  0  0  0  0  0  0  0  0
   -0.3363   -6.1172   27.5628 C   0  0  0  0  0  0  0  0  0  0  0  0
    3.0331   -7.4400   27.6362 C   0  0  0  0  0  0  0  0  0  0  0  0
    5.4553   -8.5933   27.9644 C   0  0  0  0  0  0  0  0  0  0  0  0
   -2.3870  -12.8440   19.2512 C   0  0  0  0  0  0  0  0  0  0  0  0
    0.5331   -7.6964   16.2751 C   0  0  0  0  0  0  0  0  0  0  0  0
   -0.6740  -10.8737   18.0482 C   0  0  0  0  0  0  0  0  0  0  0  0
    5.6751  -10.5870   29.7637 O   0  0  0  0  0  0  0  0  0  0  0  0
    1.7612   -5.6483   26.7172 C   0  0  0  0  0  0  0  0  0  0  0  0
    0.2221   -9.8326   17.4055 C   0  0  0  0  0  0  0  0  0  0  0  0
    4.3850   -9.0730   28.6745 C   0  0  0  0  0  0  0  0  0  0  0  0
  1  7  4  0
  1 22  4  0
  2 17  4  0
  2 20  4  0
  2 28  4  0
  3  6  1  0
  3 19  1  0
  4 19  1  0
  4 26  1  0
  5 17  4  0
  5 18  4  0
  6 20  1  0
  6 26  1  0
  7 24  4  0
  8 15  4  0
  8 24  4  0
  9 14  4  0
  9 21  4  0
 10 12  4  0
 10 27  4  0
 11 12  4  0
 11 23  4  0
 13 23  4  0
 13 27  4  0
 14 20  4  0
 15 22  4  0
 16 18  4  0
 16 25  2  0
 16 28  4  0
 21 28  4  0
 24 27  1  0
M  END
$$$$

 Created by Python create_sdf_string function

 28 31  0  0  0  0  0  0  0  0999 V2000
   -1.0054  -13.0622   19.1198 C   0  0  0  0  0  0  0  0  0  0  0  0
    3.1478   -8.5360   28.5161 C   0  0  0  0  0  0  0  0  0  0  0  0
    0.5798   -7.1906   27.9330 C   0  0  0  0  0  0  0  0  0  0  0  0
    0.3978   -5.1561   26.6955 C   0  0  0  0  0  0  0  0  0  0  0  0
    2.3063  -10.0533   30.0125 C   0  0  0  0  0  0  0  0  0  0  0  0
    1.8591   -6.8254   27.4685 N   0  0  0  0  0  0  0  0  0  0  0  0
   -0.2167  -12.1055   18.5568 C   0  0  0  0  0  0  0  0  0  0  0  0
   -2.0661  -10.6994   18.1916 C   0  0  0  0  0  0  0  0  0  0  0  0
    5.2703   -7.5691   27.1123 C   0  0  0  0  0  0  0  0  0  0  0  0
    1.6204   -9.9887   17.2935 C   0  0  0  0  0  0  0  0  0  0  0  0
    1.8931   -7.9265   16.2047 C   0  0  0  0  0  0  0  0  0  0  0  0
    2.4396   -9.0801   16.7132 C   0  0  0  0  0  0  0  0  0  0  0  0
   -0.2575   -8.6234   16.8582 C   0  0  0  0  0  0  0  0  0  0  0  0
    4.0614   -7.0367   27.0106 N   0  0  0  0  0  0  0  0  0  0  0  0
   -2.9133  -11.6279   18.7578 C   0  0  0  0  0  0  0  0  0  0  0  0
    4.5688  -10.1291   29.5758 C   0  0  0  0  0  0  0  0  0  0  0  0
    2.1008   -9.0410   29.1852 N   0  0  0  0  0  0  0  0  0  0  0  0
    3.4829  -10.5697   30.2091 N   0  0  0  0  0  0  0  0  0  0  0  0
   -0.3363   -6.1172   27.5628 C   0  0  0  0  0  0  0  0  0  0  0  0
    3.0331   -7.4400   27.6362 C   0  0  0  0  0  0  0  0  0  0  0  0
    5.4553   -8.5933   27.9644 C   0  0  0  0  0  0  0  0  0  0  0  0
   -2.3870  -12.8440   19.2512 C   0  0  0  0  0  0  0  0  0  0  0  0
    0.5331   -7.6964   16.2751 C   0  0  0  0  0  0  0  0  0  0  0  0
   -0.6740  -10.8737   18.0482 C   0  0  0  0  0  0  0  0  0  0  0  0
    5.6751  -10.5870   29.7637 O   0  0  0  0  0  0  0  0  0  0  0  0
    1.7612   -5.6483   26.7172 C   0  0  0  0  0  0  0  0  0  0  0  0
    0.2221   -9.8326   17.4055 C   0  0  0  0  0  0  0  0  0  0  0  0
    4.3850   -9.0730   28.6745 C   0  0  0  0  0  0  0  0  0  0  0  0
  1  7  4  0
  1 22  4  0
  2 17  4  0
  2 20  4  0
  2 28  4  0
  3  6  1  0
  3 19  1  0
  4 19  1  0
  4 26  1  0
  5 17  4  0
  5 18  4  0
  6 20  1  0
  6 26  1  0
  7 24  4  0
  8 15  4  0
  8 24  4  0
  9 14  4  0
  9 21  4  0
 10 12  4  0
 10 27  4  0
 11 12  4  0
 11 23  4  0
 13 23  4  0
 13 27  4  0
 14 20  4  0
 15 22  4  0
 16 18  4  0
 16 25  2  0
 16 28  4  0
 21 28  4  0
 24 27  1  0
M  END
$$$$

 Created by Python create_sdf_string function

 28 31  0  0  0  0  0  0  0  0999 V2000
   -1.0054  -13.0622   19.1198 C   0  0  0  0  0  0  0  0  0  0  0  0
    3.1478   -8.5360   28.5161 C   0  0  0  0  0  0  0  0  0  0  0  0
    0.5798   -7.1906   27.9330 C   0  0  0  0  0  0  0  0  0  0  0  0
    0.3978   -5.1561   26.6955 C   0  0  0  0  0  0  0  0  0  0  0  0
    2.3063  -10.0533   30.0125 C   0  0  0  0  0  0  0  0  0  0  0  0
    1.8591   -6.8254   27.4685 N   0  0  0  0  0  0  0  0  0  0  0  0
   -0.2167  -12.1055   18.5568 C   0  0  0  0  0  0  0  0  0  0  0  0
   -2.0661  -10.6994   18.1916 C   0  0  0  0  0  0  0  0  0  0  0  0
    5.2703   -7.5691   27.1123 C   0  0  0  0  0  0  0  0  0  0  0  0
    1.6204   -9.9887   17.2935 C   0  0  0  0  0  0  0  0  0  0  0  0
    1.8931   -7.9265   16.2047 C   0  0  0  0  0  0  0  0  0  0  0  0
    2.4396   -9.0801   16.7132 C   0  0  0  0  0  0  0  0  0  0  0  0
   -0.2575   -8.6234   16.8582 C   0  0  0  0  0  0  0  0  0  0  0  0
    4.0614   -7.0367   27.0106 N   0  0  0  0  0  0  0  0  0  0  0  0
   -2.9133  -11.6279   18.7578 C   0  0  0  0  0  0  0  0  0  0  0  0
    4.5688  -10.1291   29.5758 C   0  0  0  0  0  0  0  0  0  0  0  0
    2.1008   -9.0410   29.1852 N   0  0  0  0  0  0  0  0  0  0  0  0
    3.4829  -10.5697   30.2091 N   0  0  0  0  0  0  0  0  0  0  0  0
   -0.3363   -6.1172   27.5628 C   0  0  0  0  0  0  0  0  0  0  0  0
    3.0331   -7.4400   27.6362 C   0  0  0  0  0  0  0  0  0  0  0  0
    5.4553   -8.5933   27.9644 C   0  0  0  0  0  0  0  0  0  0  0  0
   -2.3870  -12.8440   19.2512 C   0  0  0  0  0  0  0  0  0  0  0  0
    0.5331   -7.6964   16.2751 C   0  0  0  0  0  0  0  0  0  0  0  0
   -0.6740  -10.8737   18.0482 C   0  0  0  0  0  0  0  0  0  0  0  0
    5.6751  -10.5870   29.7637 O   0  0  0  0  0  0  0  0  0  0  0  0
    1.7612   -5.6483   26.7172 C   0  0  0  0  0  0  0  0  0  0  0  0
    0.2221   -9.8326   17.4055 C   0  0  0  0  0  0  0  0  0  0  0  0
    4.3850   -9.0730   28.6745 C   0  0  0  0  0  0  0  0  0  0  0  0
  1  7  4  0
  1 22  4  0
  2 17  4  0
  2 20  4  0
  2 28  4  0
  3  6  1  0
  3 19  1  0
  4 19  1  0
  4 26  1  0
  5 17  4  0
  5 18  4  0
  6 20  1  0
  6 26  1  0
  7 24  4  0
  8 15  4  0
  8 24  4  0
  9 14  4  0
  9 21  4  0
 10 12  4  0
 10 27  4  0
 11 12  4  0
 11 23  4  0
 13 23  4  0
 13 27  4  0
 14 20  4  0
 15 22  4  0
 16 18  4  0
 16 25  2  0
 16 28  4  0
 21 28  4  0
 24 27  1  0
M  END
$$$$

 Created by Python create_sdf_string function

 28 31  0  0  0  0  0  0  0  0999 V2000
   -1.0054  -13.0622   19.1198 C   0  0  0  0  0  0  0  0  0  0  0  0
    3.1478   -8.5360   28.5161 C   0  0  0  0  0  0  0  0  0  0  0  0
    0.5798   -7.1906   27.9330 C   0  0  0  0  0  0  0  0  0  0  0  0
    0.3978   -5.1561   26.6955 C   0  0  0  0  0  0  0  0  0  0  0  0
    2.3063  -10.0533   30.0125 C   0  0  0  0  0  0  0  0  0  0  0  0
    1.8591   -6.8254   27.4685 N   0  0  0  0  0  0  0  0  0  0  0  0
   -0.2167  -12.1055   18.5568 C   0  0  0  0  0  0  0  0  0  0  0  0
   -2.0661  -10.6994   18.1916 C   0  0  0  0  0  0  0  0  0  0  0  0
    5.2703   -7.5691   27.1123 C   0  0  0  0  0  0  0  0  0  0  0  0
    1.6204   -9.9887   17.2935 C   0  0  0  0  0  0  0  0  0  0  0  0
    1.8931   -7.9265   16.2047 C   0  0  0  0  0  0  0  0  0  0  0  0
    2.4396   -9.0801   16.7132 C   0  0  0  0  0  0  0  0  0  0  0  0
   -0.2575   -8.6234   16.8582 C   0  0  0  0  0  0  0  0  0  0  0  0
    4.0614   -7.0367   27.0106 N   0  0  0  0  0  0  0  0  0  0  0  0
   -2.9133  -11.6279   18.7578 C   0  0  0  0  0  0  0  0  0  0  0  0
    4.5688  -10.1291   29.5758 C   0  0  0  0  0  0  0  0  0  0  0  0
    2.1008   -9.0410   29.1852 N   0  0  0  0  0  0  0  0  0  0  0  0
    3.4829  -10.5697   30.2091 N   0  0  0  0  0  0  0  0  0  0  0  0
   -0.3363   -6.1172   27.5628 C   0  0  0  0  0  0  0  0  0  0  0  0
    3.0331   -7.4400   27.6362 C   0  0  0  0  0  0  0  0  0  0  0  0
    5.4553   -8.5933   27.9644 C   0  0  0  0  0  0  0  0  0  0  0  0
   -2.3870  -12.8440   19.2512 C   0  0  0  0  0  0  0  0  0  0  0  0
    0.5331   -7.6964   16.2751 C   0  0  0  0  0  0  0  0  0  0  0  0
   -0.6740  -10.8737   18.0482 C   0  0  0  0  0  0  0  0  0  0  0  0
    5.6751  -10.5870   29.7637 O   0  0  0  0  0  0  0  0  0  0  0  0
    1.7612   -5.6483   26.7172 C   0  0  0  0  0  0  0  0  0  0  0  0
    0.2221   -9.8326   17.4055 C   0  0  0  0  0  0  0  0  0  0  0  0
    4.3850   -9.0730   28.6745 C   0  0  0  0  0  0  0  0  0  0  0  0
  1  7  4  0
  1 22  4  0
  2 17  4  0
  2 20  4  0
  2 28  4  0
  3  6  1  0
  3 19  1  0
  4 19  1  0
  4 26  1  0
  5 17  4  0
  5 18  4  0
  6 20  1  0
  6 26  1  0
  7 24  4  0
  8 15  4  0
  8 24  4  0
  9 14  4  0
  9 21  4  0
 10 12  4  0
 10 27  4  0
 11 12  4  0
 11 23  4  0
 13 23  4  0
 13 27  4  0
 14 20  4  0
 15 22  4  0
 16 18  4  0
 16 25  2  0
 16 28  4  0
 21 28  4  0
 24 27  1  0
M  END
$$$$

 Created by Python create_sdf_string function

 28 31  0  0  0  0  0  0  0  0999 V2000
   -1.0054  -13.0622   19.1198 C   0  0  0  0  0  0  0  0  0  0  0  0
    3.1478   -8.5360   28.5161 C   0  0  0  0  0  0  0  0  0  0  0  0
    0.5798   -7.1906   27.9330 C   0  0  0  0  0  0  0  0  0  0  0  0
    0.3978   -5.1561   26.6955 C   0  0  0  0  0  0  0  0  0  0  0  0
    2.3063  -10.0533   30.0125 C   0  0  0  0  0  0  0  0  0  0  0  0
    1.8591   -6.8254   27.4685 N   0  0  0  0  0  0  0  0  0  0  0  0
   -0.2167  -12.1055   18.5568 C   0  0  0  0  0  0  0  0  0  0  0  0
   -2.0661  -10.6994   18.1916 C   0  0  0  0  0  0  0  0  0  0  0  0
    5.2703   -7.5691   27.1123 C   0  0  0  0  0  0  0  0  0  0  0  0
    1.6204   -9.9887   17.2935 C   0  0  0  0  0  0  0  0  0  0  0  0
    1.8931   -7.9265   16.2047 C   0  0  0  0  0  0  0  0  0  0  0  0
    2.4396   -9.0801   16.7132 C   0  0  0  0  0  0  0  0  0  0  0  0
   -0.2575   -8.6234   16.8582 C   0  0  0  0  0  0  0  0  0  0  0  0
    4.0614   -7.0367   27.0106 N   0  0  0  0  0  0  0  0  0  0  0  0
   -2.9133  -11.6279   18.7578 C   0  0  0  0  0  0  0  0  0  0  0  0
    4.5688  -10.1291   29.5758 C   0  0  0  0  0  0  0  0  0  0  0  0
    2.1008   -9.0410   29.1852 N   0  0  0  0  0  0  0  0  0  0  0  0
    3.4829  -10.5697   30.2091 N   0  0  0  0  0  0  0  0  0  0  0  0
   -0.3363   -6.1172   27.5628 C   0  0  0  0  0  0  0  0  0  0  0  0
    3.0331   -7.4400   27.6362 C   0  0  0  0  0  0  0  0  0  0  0  0
    5.4553   -8.5933   27.9644 C   0  0  0  0  0  0  0  0  0  0  0  0
   -2.3870  -12.8440   19.2512 C   0  0  0  0  0  0  0  0  0  0  0  0
    0.5331   -7.6964   16.2751 C   0  0  0  0  0  0  0  0  0  0  0  0
   -0.6740  -10.8737   18.0482 C   0  0  0  0  0  0  0  0  0  0  0  0
    5.6751  -10.5870   29.7637 O   0  0  0  0  0  0  0  0  0  0  0  0
    1.7612   -5.6483   26.7172 C   0  0  0  0  0  0  0  0  0  0  0  0
    0.2221   -9.8326   17.4055 C   0  0  0  0  0  0  0  0  0  0  0  0
    4.3850   -9.0730   28.6745 C   0  0  0  0  0  0  0  0  0  0  0  0
  1  7  4  0
  1 22  4  0
  2 17  4  0
  2 20  4  0
  2 28  4  0
  3  6  1  0
  3 19  1  0
  4 19  1  0
  4 26  1  0
  5 17  4  0
  5 18  4  0
  6 20  1  0
  6 26  1  0
  7 24  4  0
  8 15  4  0
  8 24  4  0
  9 14  4  0
  9 21  4  0
 10 12  4  0
 10 27  4  0
 11 12  4  0
 11 23  4  0
 13 23  4  0
 13 27  4  0
 14 20  4  0
 15 22  4  0
 16 18  4  0
 16 25  2  0
 16 28  4  0
 21 28  4  0
 24 27  1  0
M  END
$$$$

 Created by Python create_sdf_string function

 28 31  0  0  0  0  0  0  0  0999 V2000
   -1.0054  -13.0622   19.1198 C   0  0  0  0  0  0  0  0  0  0  0  0
    3.1478   -8.5360   28.5161 C   0  0  0  0  0  0  0  0  0  0  0  0
    0.5798   -7.1906   27.9330 C   0  0  0  0  0  0  0  0  0  0  0  0
    0.3978   -5.1561   26.6955 C   0  0  0  0  0  0  0  0  0  0  0  0
    2.3063  -10.0533   30.0125 C   0  0  0  0  0  0  0  0  0  0  0  0
    1.8591   -6.8254   27.4685 N   0  0  0  0  0  0  0  0  0  0  0  0
   -0.2167  -12.1055   18.5568 C   0  0  0  0  0  0  0  0  0  0  0  0
   -2.0661  -10.6994   18.1916 C   0  0  0  0  0  0  0  0  0  0  0  0
    5.2703   -7.5691   27.1123 C   0  0  0  0  0  0  0  0  0  0  0  0
    1.6204   -9.9887   17.2935 C   0  0  0  0  0  0  0  0  0  0  0  0
    1.8931   -7.9265   16.2047 C   0  0  0  0  0  0  0  0  0  0  0  0
    2.4396   -9.0801   16.7132 C   0  0  0  0  0  0  0  0  0  0  0  0
   -0.2575   -8.6234   16.8582 C   0  0  0  0  0  0  0  0  0  0  0  0
    4.0614   -7.0367   27.0106 N   0  0  0  0  0  0  0  0  0  0  0  0
   -2.9133  -11.6279   18.7578 C   0  0  0  0  0  0  0  0  0  0  0  0
    4.5688  -10.1291   29.5758 C   0  0  0  0  0  0  0  0  0  0  0  0
    2.1008   -9.0410   29.1852 N   0  0  0  0  0  0  0  0  0  0  0  0
    3.4829  -10.5697   30.2091 N   0  0  0  0  0  0  0  0  0  0  0  0
   -0.3363   -6.1172   27.5628 C   0  0  0  0  0  0  0  0  0  0  0  0
    3.0331   -7.4400   27.6362 C   0  0  0  0  0  0  0  0  0  0  0  0
    5.4553   -8.5933   27.9644 C   0  0  0  0  0  0  0  0  0  0  0  0
   -2.3870  -12.8440   19.2512 C   0  0  0  0  0  0  0  0  0  0  0  0
    0.5331   -7.6964   16.2751 C   0  0  0  0  0  0  0  0  0  0  0  0
   -0.6740  -10.8737   18.0482 C   0  0  0  0  0  0  0  0  0  0  0  0
    5.6751  -10.5870   29.7637 O   0  0  0  0  0  0  0  0  0  0  0  0
    1.7612   -5.6483   26.7172 C   0  0  0  0  0  0  0  0  0  0  0  0
    0.2221   -9.8326   17.4055 C   0  0  0  0  0  0  0  0  0  0  0  0
    4.3850   -9.0730   28.6745 C   0  0  0  0  0  0  0  0  0  0  0  0
  1  7  4  0
  1 22  4  0
  2 17  4  0
  2 20  4  0
  2 28  4  0
  3  6  1  0
  3 19  1  0
  4 19  1  0
  4 26  1  0
  5 17  4  0
  5 18  4  0
  6 20  1  0
  6 26  1  0
  7 24  4  0
  8 15  4  0
  8 24  4  0
  9 14  4  0
  9 21  4  0
 10 12  4  0
 10 27  4  0
 11 12  4  0
 11 23  4  0
 13 23  4  0
 13 27  4  0
 14 20  4  0
 15 22  4  0
 16 18  4  0
 16 25  2  0
 16 28  4  0
 21 28  4  0
 24 27  1  0
M  END
$$$$

 Created by Python create_sdf_string function

 28 31  0  0  0  0  0  0  0  0999 V2000
   -1.0054  -13.0622   19.1198 C   0  0  0  0  0  0  0  0  0  0  0  0
    3.1478   -8.5360   28.5161 C   0  0  0  0  0  0  0  0  0  0  0  0
    0.5798   -7.1906   27.9330 C   0  0  0  0  0  0  0  0  0  0  0  0
    0.3978   -5.1561   26.6955 C   0  0  0  0  0  0  0  0  0  0  0  0
    2.3063  -10.0533   30.0125 C   0  0  0  0  0  0  0  0  0  0  0  0
    1.8591   -6.8254   27.4685 N   0  0  0  0  0  0  0  0  0  0  0  0
   -0.2167  -12.1055   18.5568 C   0  0  0  0  0  0  0  0  0  0  0  0
   -2.0661  -10.6994   18.1916 C   0  0  0  0  0  0  0  0  0  0  0  0
    5.2703   -7.5691   27.1123 C   0  0  0  0  0  0  0  0  0  0  0  0
    1.6204   -9.9887   17.2935 C   0  0  0  0  0  0  0  0  0  0  0  0
    1.8931   -7.9265   16.2047 C   0  0  0  0  0  0  0  0  0  0  0  0
    2.4396   -9.0801   16.7132 C   0  0  0  0  0  0  0  0  0  0  0  0
   -0.2575   -8.6234   16.8582 C   0  0  0  0  0  0  0  0  0  0  0  0
    4.0614   -7.0367   27.0106 N   0  0  0  0  0  0  0  0  0  0  0  0
   -2.9133  -11.6279   18.7578 C   0  0  0  0  0  0  0  0  0  0  0  0
    4.5688  -10.1291   29.5758 C   0  0  0  0  0  0  0  0  0  0  0  0
    2.1008   -9.0410   29.1852 N   0  0  0  0  0  0  0  0  0  0  0  0
    3.4829  -10.5697   30.2091 N   0  0  0  0  0  0  0  0  0  0  0  0
   -0.3363   -6.1172   27.5628 C   0  0  0  0  0  0  0  0  0  0  0  0
    3.0331   -7.4400   27.6362 C   0  0  0  0  0  0  0  0  0  0  0  0
    5.4553   -8.5933   27.9644 C   0  0  0  0  0  0  0  0  0  0  0  0
   -2.3870  -12.8440   19.2512 C   0  0  0  0  0  0  0  0  0  0  0  0
    0.5331   -7.6964   16.2751 C   0  0  0  0  0  0  0  0  0  0  0  0
   -0.6740  -10.8737   18.0482 C   0  0  0  0  0  0  0  0  0  0  0  0
    5.6751  -10.5870   29.7637 O   0  0  0  0  0  0  0  0  0  0  0  0
    1.7612   -5.6483   26.7172 C   0  0  0  0  0  0  0  0  0  0  0  0
    0.2221   -9.8326   17.4055 C   0  0  0  0  0  0  0  0  0  0  0  0
    4.3850   -9.0730   28.6745 C   0  0  0  0  0  0  0  0  0  0  0  0
  1  7  4  0
  1 22  4  0
  2 17  4  0
  2 20  4  0
  2 28  4  0
  3  6  1  0
  3 19  1  0
  4 19  1  0
  4 26  1  0
  5 17  4  0
  5 18  4  0
  6 20  1  0
  6 26  1  0
  7 24  4  0
  8 15  4  0
  8 24  4  0
  9 14  4  0
  9 21  4  0
 10 12  4  0
 10 27  4  0
 11 12  4  0
 11 23  4  0
 13 23  4  0
 13 27  4  0
 14 20  4  0
 15 22  4  0
 16 18  4  0
 16 25  2  0
 16 28  4  0
 21 28  4  0
 24 27  1  0
M  END
$$$$

 Created by Python create_sdf_string function

 28 31  0  0  0  0  0  0  0  0999 V2000
   -1.0054  -13.0622   19.1198 C   0  0  0  0  0  0  0  0  0  0  0  0
    3.1478   -8.5360   28.5161 C   0  0  0  0  0  0  0  0  0  0  0  0
    0.5798   -7.1906   27.9330 C   0  0  0  0  0  0  0  0  0  0  0  0
    0.3978   -5.1561   26.6955 C   0  0  0  0  0  0  0  0  0  0  0  0
    2.3063  -10.0533   30.0125 C   0  0  0  0  0  0  0  0  0  0  0  0
    1.8591   -6.8254   27.4685 N   0  0  0  0  0  0  0  0  0  0  0  0
   -0.2167  -12.1055   18.5568 C   0  0  0  0  0  0  0  0  0  0  0  0
   -2.0661  -10.6994   18.1916 C   0  0  0  0  0  0  0  0  0  0  0  0
    5.2703   -7.5691   27.1123 C   0  0  0  0  0  0  0  0  0  0  0  0
    1.6204   -9.9887   17.2935 C   0  0  0  0  0  0  0  0  0  0  0  0
    1.8931   -7.9265   16.2047 C   0  0  0  0  0  0  0  0  0  0  0  0
    2.4396   -9.0801   16.7132 C   0  0  0  0  0  0  0  0  0  0  0  0
   -0.2575   -8.6234   16.8582 C   0  0  0  0  0  0  0  0  0  0  0  0
    4.0614   -7.0367   27.0106 N   0  0  0  0  0  0  0  0  0  0  0  0
   -2.9133  -11.6279   18.7578 C   0  0  0  0  0  0  0  0  0  0  0  0
    4.5688  -10.1291   29.5758 C   0  0  0  0  0  0  0  0  0  0  0  0
    2.1008   -9.0410   29.1852 N   0  0  0  0  0  0  0  0  0  0  0  0
    3.4829  -10.5697   30.2091 N   0  0  0  0  0  0  0  0  0  0  0  0
   -0.3363   -6.1172   27.5628 C   0  0  0  0  0  0  0  0  0  0  0  0
    3.0331   -7.4400   27.6362 C   0  0  0  0  0  0  0  0  0  0  0  0
    5.4553   -8.5933   27.9644 C   0  0  0  0  0  0  0  0  0  0  0  0
   -2.3870  -12.8440   19.2512 C   0  0  0  0  0  0  0  0  0  0  0  0
    0.5331   -7.6964   16.2751 C   0  0  0  0  0  0  0  0  0  0  0  0
   -0.6740  -10.8737   18.0482 C   0  0  0  0  0  0  0  0  0  0  0  0
    5.6751  -10.5870   29.7637 O   0  0  0  0  0  0  0  0  0  0  0  0
    1.7612   -5.6483   26.7172 C   0  0  0  0  0  0  0  0  0  0  0  0
    0.2221   -9.8326   17.4055 C   0  0  0  0  0  0  0  0  0  0  0  0
    4.3850   -9.0730   28.6745 C   0  0  0  0  0  0  0  0  0  0  0  0
  1  7  4  0
  1 22  4  0
  2 17  4  0
  2 20  4  0
  2 28  4  0
  3  6  1  0
  3 19  1  0
  4 19  1  0
  4 26  1  0
  5 17  4  0
  5 18  4  0
  6 20  1  0
  6 26  1  0
  7 24  4  0
  8 15  4  0
  8 24  4  0
  9 14  4  0
  9 21  4  0
 10 12  4  0
 10 27  4  0
 11 12  4  0
 11 23  4  0
 13 23  4  0
 13 27  4  0
 14 20  4  0
 15 22  4  0
 16 18  4  0
 16 25  2  0
 16 28  4  0
 21 28  4  0
 24 27  1  0
M  END
$$$$

 Created by Python create_sdf_string function

 28 31  0  0  0  0  0  0  0  0999 V2000
   -1.0054  -13.0622   19.1198 C   0  0  0  0  0  0  0  0  0  0  0  0
    3.1478   -8.5360   28.5161 C   0  0  0  0  0  0  0  0  0  0  0  0
    0.5798   -7.1906   27.9330 C   0  0  0  0  0  0  0  0  0  0  0  0
    0.3978   -5.1561   26.6955 C   0  0  0  0  0  0  0  0  0  0  0  0
    2.3063  -10.0533   30.0125 C   0  0  0  0  0  0  0  0  0  0  0  0
    1.8591   -6.8254   27.4685 N   0  0  0  0  0  0  0  0  0  0  0  0
   -0.2167  -12.1055   18.5568 C   0  0  0  0  0  0  0  0  0  0  0  0
   -2.0661  -10.6994   18.1916 C   0  0  0  0  0  0  0  0  0  0  0  0
    5.2703   -7.5691   27.1123 C   0  0  0  0  0  0  0  0  0  0  0  0
    1.6204   -9.9887   17.2935 C   0  0  0  0  0  0  0  0  0  0  0  0
    1.8931   -7.9265   16.2047 C   0  0  0  0  0  0  0  0  0  0  0  0
    2.4396   -9.0801   16.7132 C   0  0  0  0  0  0  0  0  0  0  0  0
   -0.2575   -8.6234   16.8582 C   0  0  0  0  0  0  0  0  0  0  0  0
    4.0614   -7.0367   27.0106 N   0  0  0  0  0  0  0  0  0  0  0  0
   -2.9133  -11.6279   18.7578 C   0  0  0  0  0  0  0  0  0  0  0  0
    4.5688  -10.1291   29.5758 C   0  0  0  0  0  0  0  0  0  0  0  0
    2.1008   -9.0410   29.1852 N   0  0  0  0  0  0  0  0  0  0  0  0
    3.4829  -10.5697   30.2091 N   0  0  0  0  0  0  0  0  0  0  0  0
   -0.3363   -6.1172   27.5628 C   0  0  0  0  0  0  0  0  0  0  0  0
    3.0331   -7.4400   27.6362 C   0  0  0  0  0  0  0  0  0  0  0  0
    5.4553   -8.5933   27.9644 C   0  0  0  0  0  0  0  0  0  0  0  0
   -2.3870  -12.8440   19.2512 C   0  0  0  0  0  0  0  0  0  0  0  0
    0.5331   -7.6964   16.2751 C   0  0  0  0  0  0  0  0  0  0  0  0
   -0.6740  -10.8737   18.0482 C   0  0  0  0  0  0  0  0  0  0  0  0
    5.6751  -10.5870   29.7637 O   0  0  0  0  0  0  0  0  0  0  0  0
    1.7612   -5.6483   26.7172 C   0  0  0  0  0  0  0  0  0  0  0  0
    0.2221   -9.8326   17.4055 C   0  0  0  0  0  0  0  0  0  0  0  0
    4.3850   -9.0730   28.6745 C   0  0  0  0  0  0  0  0  0  0  0  0
  1  7  4  0
  1 22  4  0
  2 17  4  0
  2 20  4  0
  2 28  4  0
  3  6  1  0
  3 19  1  0
  4 19  1  0
  4 26  1  0
  5 17  4  0
  5 18  4  0
  6 20  1  0
  6 26  1  0
  7 24  4  0
  8 15  4  0
  8 24  4  0
  9 14  4  0
  9 21  4  0
 10 12  4  0
 10 27  4  0
 11 12  4  0
 11 23  4  0
 13 23  4  0
 13 27  4  0
 14 20  4  0
 15 22  4  0
 16 18  4  0
 16 25  2  0
 16 28  4  0
 21 28  4  0
 24 27  1  0
M  END
$$$$

 Created by Python create_sdf_string function

 28 31  0  0  0  0  0  0  0  0999 V2000
   -1.0054  -13.0622   19.1198 C   0  0  0  0  0  0  0  0  0  0  0  0
    3.1478   -8.5360   28.5161 C   0  0  0  0  0  0  0  0  0  0  0  0
    0.5798   -7.1906   27.9330 C   0  0  0  0  0  0  0  0  0  0  0  0
    0.3978   -5.1561   26.6955 C   0  0  0  0  0  0  0  0  0  0  0  0
    2.3063  -10.0533   30.0125 C   0  0  0  0  0  0  0  0  0  0  0  0
    1.8591   -6.8254   27.4685 N   0  0  0  0  0  0  0  0  0  0  0  0
   -0.2167  -12.1055   18.5568 C   0  0  0  0  0  0  0  0  0  0  0  0
   -2.0661  -10.6994   18.1916 C   0  0  0  0  0  0  0  0  0  0  0  0
    5.2703   -7.5691   27.1123 C   0  0  0  0  0  0  0  0  0  0  0  0
    1.6204   -9.9887   17.2935 C   0  0  0  0  0  0  0  0  0  0  0  0
    1.8931   -7.9265   16.2047 C   0  0  0  0  0  0  0  0  0  0  0  0
    2.4396   -9.0801   16.7132 C   0  0  0  0  0  0  0  0  0  0  0  0
   -0.2575   -8.6234   16.8582 C   0  0  0  0  0  0  0  0  0  0  0  0
    4.0614   -7.0367   27.0106 N   0  0  0  0  0  0  0  0  0  0  0  0
   -2.9133  -11.6279   18.7578 C   0  0  0  0  0  0  0  0  0  0  0  0
    4.5688  -10.1291   29.5758 C   0  0  0  0  0  0  0  0  0  0  0  0
    2.1008   -9.0410   29.1852 N   0  0  0  0  0  0  0  0  0  0  0  0
    3.4829  -10.5697   30.2091 N   0  0  0  0  0  0  0  0  0  0  0  0
   -0.3363   -6.1172   27.5628 C   0  0  0  0  0  0  0  0  0  0  0  0
    3.0331   -7.4400   27.6362 C   0  0  0  0  0  0  0  0  0  0  0  0
    5.4553   -8.5933   27.9644 C   0  0  0  0  0  0  0  0  0  0  0  0
   -2.3870  -12.8440   19.2512 C   0  0  0  0  0  0  0  0  0  0  0  0
    0.5331   -7.6964   16.2751 C   0  0  0  0  0  0  0  0  0  0  0  0
   -0.6740  -10.8737   18.0482 C   0  0  0  0  0  0  0  0  0  0  0  0
    5.6751  -10.5870   29.7637 O   0  0  0  0  0  0  0  0  0  0  0  0
    1.7612   -5.6483   26.7172 C   0  0  0  0  0  0  0  0  0  0  0  0
    0.2221   -9.8326   17.4055 C   0  0  0  0  0  0  0  0  0  0  0  0
    4.3850   -9.0730   28.6745 C   0  0  0  0  0  0  0  0  0  0  0  0
  1  7  4  0
  1 22  4  0
  2 17  4  0
  2 20  4  0
  2 28  4  0
  3  6  1  0
  3 19  1  0
  4 19  1  0
  4 26  1  0
  5 17  4  0
  5 18  4  0
  6 20  1  0
  6 26  1  0
  7 24  4  0
  8 15  4  0
  8 24  4  0
  9 14  4  0
  9 21  4  0
 10 12  4  0
 10 27  4  0
 11 12  4  0
 11 23  4  0
 13 23  4  0
 13 27  4  0
 14 20  4  0
 15 22  4  0
 16 18  4  0
 16 25  2  0
 16 28  4  0
 21 28  4  0
 24 27  1  0
M  END
$$$$

 Created by Python create_sdf_string function

 28 31  0  0  0  0  0  0  0  0999 V2000
   -1.0054  -13.0622   19.1198 C   0  0  0  0  0  0  0  0  0  0  0  0
    3.1478   -8.5360   28.5161 C   0  0  0  0  0  0  0  0  0  0  0  0
    0.5798   -7.1906   27.9330 C   0  0  0  0  0  0  0  0  0  0  0  0
    0.3978   -5.1561   26.6955 C   0  0  0  0  0  0  0  0  0  0  0  0
    2.3063  -10.0533   30.0125 C   0  0  0  0  0  0  0  0  0  0  0  0
    1.8591   -6.8254   27.4685 N   0  0  0  0  0  0  0  0  0  0  0  0
   -0.2167  -12.1055   18.5568 C   0  0  0  0  0  0  0  0  0  0  0  0
   -2.0661  -10.6994   18.1916 C   0  0  0  0  0  0  0  0  0  0  0  0
    5.2703   -7.5691   27.1123 C   0  0  0  0  0  0  0  0  0  0  0  0
    1.6204   -9.9887   17.2935 C   0  0  0  0  0  0  0  0  0  0  0  0
    1.8931   -7.9265   16.2047 C   0  0  0  0  0  0  0  0  0  0  0  0
    2.4396   -9.0801   16.7132 C   0  0  0  0  0  0  0  0  0  0  0  0
   -0.2575   -8.6234   16.8582 C   0  0  0  0  0  0  0  0  0  0  0  0
    4.0614   -7.0367   27.0106 N   0  0  0  0  0  0  0  0  0  0  0  0
   -2.9133  -11.6279   18.7578 C   0  0  0  0  0  0  0  0  0  0  0  0
    4.5688  -10.1291   29.5758 C   0  0  0  0  0  0  0  0  0  0  0  0
    2.1008   -9.0410   29.1852 N   0  0  0  0  0  0  0  0  0  0  0  0
    3.4829  -10.5697   30.2091 N   0  0  0  0  0  0  0  0  0  0  0  0
   -0.3363   -6.1172   27.5628 C   0  0  0  0  0  0  0  0  0  0  0  0
    3.0331   -7.4400   27.6362 C   0  0  0  0  0  0  0  0  0  0  0  0
    5.4553   -8.5933   27.9644 C   0  0  0  0  0  0  0  0  0  0  0  0
   -2.3870  -12.8440   19.2512 C   0  0  0  0  0  0  0  0  0  0  0  0
    0.5331   -7.6964   16.2751 C   0  0  0  0  0  0  0  0  0  0  0  0
   -0.6740  -10.8737   18.0482 C   0  0  0  0  0  0  0  0  0  0  0  0
    5.6751  -10.5870   29.7637 O   0  0  0  0  0  0  0  0  0  0  0  0
    1.7612   -5.6483   26.7172 C   0  0  0  0  0  0  0  0  0  0  0  0
    0.2221   -9.8326   17.4055 C   0  0  0  0  0  0  0  0  0  0  0  0
    4.3850   -9.0730   28.6745 C   0  0  0  0  0  0  0  0  0  0  0  0
  1  7  4  0
  1 22  4  0
  2 17  4  0
  2 20  4  0
  2 28  4  0
  3  6  1  0
  3 19  1  0
  4 19  1  0
  4 26  1  0
  5 17  4  0
  5 18  4  0
  6 20  1  0
  6 26  1  0
  7 24  4  0
  8 15  4  0
  8 24  4  0
  9 14  4  0
  9 21  4  0
 10 12  4  0
 10 27  4  0
 11 12  4  0
 11 23  4  0
 13 23  4  0
 13 27  4  0
 14 20  4  0
 15 22  4  0
 16 18  4  0
 16 25  2  0
 16 28  4  0
 21 28  4  0
 24 27  1  0
M  END
$$$$

 Created by Python create_sdf_string function

 28 31  0  0  0  0  0  0  0  0999 V2000
   -1.0054  -13.0622   19.1198 C   0  0  0  0  0  0  0  0  0  0  0  0
    3.1478   -8.5360   28.5161 C   0  0  0  0  0  0  0  0  0  0  0  0
    0.5798   -7.1906   27.9330 C   0  0  0  0  0  0  0  0  0  0  0  0
    0.3978   -5.1561   26.6955 C   0  0  0  0  0  0  0  0  0  0  0  0
    2.3063  -10.0533   30.0125 C   0  0  0  0  0  0  0  0  0  0  0  0
    1.8591   -6.8254   27.4685 N   0  0  0  0  0  0  0  0  0  0  0  0
   -0.2167  -12.1055   18.5568 C   0  0  0  0  0  0  0  0  0  0  0  0
   -2.0661  -10.6994   18.1916 C   0  0  0  0  0  0  0  0  0  0  0  0
    5.2703   -7.5691   27.1123 C   0  0  0  0  0  0  0  0  0  0  0  0
    1.6204   -9.9887   17.2935 C   0  0  0  0  0  0  0  0  0  0  0  0
    1.8931   -7.9265   16.2047 C   0  0  0  0  0  0  0  0  0  0  0  0
    2.4396   -9.0801   16.7132 C   0  0  0  0  0  0  0  0  0  0  0  0
   -0.2575   -8.6234   16.8582 C   0  0  0  0  0  0  0  0  0  0  0  0
    4.0614   -7.0367   27.0106 N   0  0  0  0  0  0  0  0  0  0  0  0
   -2.9133  -11.6279   18.7578 C   0  0  0  0  0  0  0  0  0  0  0  0
    4.5688  -10.1291   29.5758 C   0  0  0  0  0  0  0  0  0  0  0  0
    2.1008   -9.0410   29.1852 N   0  0  0  0  0  0  0  0  0  0  0  0
    3.4829  -10.5697   30.2091 N   0  0  0  0  0  0  0  0  0  0  0  0
   -0.3363   -6.1172   27.5628 C   0  0  0  0  0  0  0  0  0  0  0  0
    3.0331   -7.4400   27.6362 C   0  0  0  0  0  0  0  0  0  0  0  0
    5.4553   -8.5933   27.9644 C   0  0  0  0  0  0  0  0  0  0  0  0
   -2.3870  -12.8440   19.2512 C   0  0  0  0  0  0  0  0  0  0  0  0
    0.5331   -7.6964   16.2751 C   0  0  0  0  0  0  0  0  0  0  0  0
   -0.6740  -10.8737   18.0482 C   0  0  0  0  0  0  0  0  0  0  0  0
    5.6751  -10.5870   29.7637 O   0  0  0  0  0  0  0  0  0  0  0  0
    1.7612   -5.6483   26.7172 C   0  0  0  0  0  0  0  0  0  0  0  0
    0.2221   -9.8326   17.4055 C   0  0  0  0  0  0  0  0  0  0  0  0
    4.3850   -9.0730   28.6745 C   0  0  0  0  0  0  0  0  0  0  0  0
  1  7  4  0
  1 22  4  0
  2 17  4  0
  2 20  4  0
  2 28  4  0
  3  6  1  0
  3 19  1  0
  4 19  1  0
  4 26  1  0
  5 17  4  0
  5 18  4  0
  6 20  1  0
  6 26  1  0
  7 24  4  0
  8 15  4  0
  8 24  4  0
  9 14  4  0
  9 21  4  0
 10 12  4  0
 10 27  4  0
 11 12  4  0
 11 23  4  0
 13 23  4  0
 13 27  4  0
 14 20  4  0
 15 22  4  0
 16 18  4  0
 16 25  2  0
 16 28  4  0
 21 28  4  0
 24 27  1  0
M  END
$$$$

 Created by Python create_sdf_string function

 28 31  0  0  0  0  0  0  0  0999 V2000
   -1.0054  -13.0622   19.1198 C   0  0  0  0  0  0  0  0  0  0  0  0
    3.1478   -8.5360   28.5161 C   0  0  0  0  0  0  0  0  0  0  0  0
    0.5798   -7.1906   27.9330 C   0  0  0  0  0  0  0  0  0  0  0  0
    0.3978   -5.1561   26.6955 C   0  0  0  0  0  0  0  0  0  0  0  0
    2.3063  -10.0533   30.0125 C   0  0  0  0  0  0  0  0  0  0  0  0
    1.8591   -6.8254   27.4685 N   0  0  0  0  0  0  0  0  0  0  0  0
   -0.2167  -12.1055   18.5568 C   0  0  0  0  0  0  0  0  0  0  0  0
   -2.0661  -10.6994   18.1916 C   0  0  0  0  0  0  0  0  0  0  0  0
    5.2703   -7.5691   27.1123 C   0  0  0  0  0  0  0  0  0  0  0  0
    1.6204   -9.9887   17.2935 C   0  0  0  0  0  0  0  0  0  0  0  0
    1.8931   -7.9265   16.2047 C   0  0  0  0  0  0  0  0  0  0  0  0
    2.4396   -9.0801   16.7132 C   0  0  0  0  0  0  0  0  0  0  0  0
   -0.2575   -8.6234   16.8582 C   0  0  0  0  0  0  0  0  0  0  0  0
    4.0614   -7.0367   27.0106 N   0  0  0  0  0  0  0  0  0  0  0  0
   -2.9133  -11.6279   18.7578 C   0  0  0  0  0  0  0  0  0  0  0  0
    4.5688  -10.1291   29.5758 C   0  0  0  0  0  0  0  0  0  0  0  0
    2.1008   -9.0410   29.1852 N   0  0  0  0  0  0  0  0  0  0  0  0
    3.4829  -10.5697   30.2091 N   0  0  0  0  0  0  0  0  0  0  0  0
   -0.3363   -6.1172   27.5628 C   0  0  0  0  0  0  0  0  0  0  0  0
    3.0331   -7.4400   27.6362 C   0  0  0  0  0  0  0  0  0  0  0  0
    5.4553   -8.5933   27.9644 C   0  0  0  0  0  0  0  0  0  0  0  0
   -2.3870  -12.8440   19.2512 C   0  0  0  0  0  0  0  0  0  0  0  0
    0.5331   -7.6964   16.2751 C   0  0  0  0  0  0  0  0  0  0  0  0
   -0.6740  -10.8737   18.0482 C   0  0  0  0  0  0  0  0  0  0  0  0
    5.6751  -10.5870   29.7637 O   0  0  0  0  0  0  0  0  0  0  0  0
    1.7612   -5.6483   26.7172 C   0  0  0  0  0  0  0  0  0  0  0  0
    0.2221   -9.8326   17.4055 C   0  0  0  0  0  0  0  0  0  0  0  0
    4.3850   -9.0730   28.6745 C   0  0  0  0  0  0  0  0  0  0  0  0
  1  7  4  0
  1 22  4  0
  2 17  4  0
  2 20  4  0
  2 28  4  0
  3  6  1  0
  3 19  1  0
  4 19  1  0
  4 26  1  0
  5 17  4  0
  5 18  4  0
  6 20  1  0
  6 26  1  0
  7 24  4  0
  8 15  4  0
  8 24  4  0
  9 14  4  0
  9 21  4  0
 10 12  4  0
 10 27  4  0
 11 12  4  0
 11 23  4  0
 13 23  4  0
 13 27  4  0
 14 20  4  0
 15 22  4  0
 16 18  4  0
 16 25  2  0
 16 28  4  0
 21 28  4  0
 24 27  1  0
M  END
$$$$

 Created by Python create_sdf_string function

 28 31  0  0  0  0  0  0  0  0999 V2000
   -1.0054  -13.0622   19.1198 C   0  0  0  0  0  0  0  0  0  0  0  0
    3.1478   -8.5360   28.5161 C   0  0  0  0  0  0  0  0  0  0  0  0
    0.5798   -7.1906   27.9330 C   0  0  0  0  0  0  0  0  0  0  0  0
    0.3978   -5.1561   26.6955 C   0  0  0  0  0  0  0  0  0  0  0  0
    2.3063  -10.0533   30.0125 C   0  0  0  0  0  0  0  0  0  0  0  0
    1.8591   -6.8254   27.4685 N   0  0  0  0  0  0  0  0  0  0  0  0
   -0.2167  -12.1055   18.5568 C   0  0  0  0  0  0  0  0  0  0  0  0
   -2.0661  -10.6994   18.1916 C   0  0  0  0  0  0  0  0  0  0  0  0
    5.2703   -7.5691   27.1123 C   0  0  0  0  0  0  0  0  0  0  0  0
    1.6204   -9.9887   17.2935 C   0  0  0  0  0  0  0  0  0  0  0  0
    1.8931   -7.9265   16.2047 C   0  0  0  0  0  0  0  0  0  0  0  0
    2.4396   -9.0801   16.7132 C   0  0  0  0  0  0  0  0  0  0  0  0
   -0.2575   -8.6234   16.8582 C   0  0  0  0  0  0  0  0  0  0  0  0
    4.0614   -7.0367   27.0106 N   0  0  0  0  0  0  0  0  0  0  0  0
   -2.9133  -11.6279   18.7578 C   0  0  0  0  0  0  0  0  0  0  0  0
    4.5688  -10.1291   29.5758 C   0  0  0  0  0  0  0  0  0  0  0  0
    2.1008   -9.0410   29.1852 N   0  0  0  0  0  0  0  0  0  0  0  0
    3.4829  -10.5697   30.2091 N   0  0  0  0  0  0  0  0  0  0  0  0
   -0.3363   -6.1172   27.5628 C   0  0  0  0  0  0  0  0  0  0  0  0
    3.0331   -7.4400   27.6362 C   0  0  0  0  0  0  0  0  0  0  0  0
    5.4553   -8.5933   27.9644 C   0  0  0  0  0  0  0  0  0  0  0  0
   -2.3870  -12.8440   19.2512 C   0  0  0  0  0  0  0  0  0  0  0  0
    0.5331   -7.6964   16.2751 C   0  0  0  0  0  0  0  0  0  0  0  0
   -0.6740  -10.8737   18.0482 C   0  0  0  0  0  0  0  0  0  0  0  0
    5.6751  -10.5870   29.7637 O   0  0  0  0  0  0  0  0  0  0  0  0
    1.7612   -5.6483   26.7172 C   0  0  0  0  0  0  0  0  0  0  0  0
    0.2221   -9.8326   17.4055 C   0  0  0  0  0  0  0  0  0  0  0  0
    4.3850   -9.0730   28.6745 C   0  0  0  0  0  0  0  0  0  0  0  0
  1  7  4  0
  1 22  4  0
  2 17  4  0
  2 20  4  0
  2 28  4  0
  3  6  1  0
  3 19  1  0
  4 19  1  0
  4 26  1  0
  5 17  4  0
  5 18  4  0
  6 20  1  0
  6 26  1  0
  7 24  4  0
  8 15  4  0
  8 24  4  0
  9 14  4  0
  9 21  4  0
 10 12  4  0
 10 27  4  0
 11 12  4  0
 11 23  4  0
 13 23  4  0
 13 27  4  0
 14 20  4  0
 15 22  4  0
 16 18  4  0
 16 25  2  0
 16 28  4  0
 21 28  4  0
 24 27  1  0
M  END
$$$$

 Created by Python create_sdf_string function

 28 31  0  0  0  0  0  0  0  0999 V2000
   -1.0054  -13.0622   19.1198 C   0  0  0  0  0  0  0  0  0  0  0  0
    3.1478   -8.5360   28.5161 C   0  0  0  0  0  0  0  0  0  0  0  0
    0.5798   -7.1906   27.9330 C   0  0  0  0  0  0  0  0  0  0  0  0
    0.3978   -5.1561   26.6955 C   0  0  0  0  0  0  0  0  0  0  0  0
    2.3063  -10.0533   30.0125 C   0  0  0  0  0  0  0  0  0  0  0  0
    1.8591   -6.8254   27.4685 N   0  0  0  0  0  0  0  0  0  0  0  0
   -0.2167  -12.1055   18.5568 C   0  0  0  0  0  0  0  0  0  0  0  0
   -2.0661  -10.6994   18.1916 C   0  0  0  0  0  0  0  0  0  0  0  0
    5.2703   -7.5691   27.1123 C   0  0  0  0  0  0  0  0  0  0  0  0
    1.6204   -9.9887   17.2935 C   0  0  0  0  0  0  0  0  0  0  0  0
    1.8931   -7.9265   16.2047 C   0  0  0  0  0  0  0  0  0  0  0  0
    2.4396   -9.0801   16.7132 C   0  0  0  0  0  0  0  0  0  0  0  0
   -0.2575   -8.6234   16.8582 C   0  0  0  0  0  0  0  0  0  0  0  0
    4.0614   -7.0367   27.0106 N   0  0  0  0  0  0  0  0  0  0  0  0
   -2.9133  -11.6279   18.7578 C   0  0  0  0  0  0  0  0  0  0  0  0
    4.5688  -10.1291   29.5758 C   0  0  0  0  0  0  0  0  0  0  0  0
    2.1008   -9.0410   29.1852 N   0  0  0  0  0  0  0  0  0  0  0  0
    3.4829  -10.5697   30.2091 N   0  0  0  0  0  0  0  0  0  0  0  0
   -0.3363   -6.1172   27.5628 C   0  0  0  0  0  0  0  0  0  0  0  0
    3.0331   -7.4400   27.6362 C   0  0  0  0  0  0  0  0  0  0  0  0
    5.4553   -8.5933   27.9644 C   0  0  0  0  0  0  0  0  0  0  0  0
   -2.3870  -12.8440   19.2512 C   0  0  0  0  0  0  0  0  0  0  0  0
    0.5331   -7.6964   16.2751 C   0  0  0  0  0  0  0  0  0  0  0  0
   -0.6740  -10.8737   18.0482 C   0  0  0  0  0  0  0  0  0  0  0  0
    5.6751  -10.5870   29.7637 O   0  0  0  0  0  0  0  0  0  0  0  0
    1.7612   -5.6483   26.7172 C   0  0  0  0  0  0  0  0  0  0  0  0
    0.2221   -9.8326   17.4055 C   0  0  0  0  0  0  0  0  0  0  0  0
    4.3850   -9.0730   28.6745 C   0  0  0  0  0  0  0  0  0  0  0  0
  1  7  4  0
  1 22  4  0
  2 17  4  0
  2 20  4  0
  2 28  4  0
  3  6  1  0
  3 19  1  0
  4 19  1  0
  4 26  1  0
  5 17  4  0
  5 18  4  0
  6 20  1  0
  6 26  1  0
  7 24  4  0
  8 15  4  0
  8 24  4  0
  9 14  4  0
  9 21  4  0
 10 12  4  0
 10 27  4  0
 11 12  4  0
 11 23  4  0
 13 23  4  0
 13 27  4  0
 14 20  4  0
 15 22  4  0
 16 18  4  0
 16 25  2  0
 16 28  4  0
 21 28  4  0
 24 27  1  0
M  END
$$$$

 Created by Python create_sdf_string function

 28 31  0  0  0  0  0  0  0  0999 V2000
   -1.0054  -13.0622   19.1198 C   0  0  0  0  0  0  0  0  0  0  0  0
    3.1478   -8.5360   28.5161 C   0  0  0  0  0  0  0  0  0  0  0  0
    0.5798   -7.1906   27.9330 C   0  0  0  0  0  0  0  0  0  0  0  0
    0.3978   -5.1561   26.6955 C   0  0  0  0  0  0  0  0  0  0  0  0
    2.3063  -10.0533   30.0125 C   0  0  0  0  0  0  0  0  0  0  0  0
    1.8591   -6.8254   27.4685 N   0  0  0  0  0  0  0  0  0  0  0  0
   -0.2167  -12.1055   18.5568 C   0  0  0  0  0  0  0  0  0  0  0  0
   -2.0661  -10.6994   18.1916 C   0  0  0  0  0  0  0  0  0  0  0  0
    5.2703   -7.5691   27.1123 C   0  0  0  0  0  0  0  0  0  0  0  0
    1.6204   -9.9887   17.2935 C   0  0  0  0  0  0  0  0  0  0  0  0
    1.8931   -7.9265   16.2047 C   0  0  0  0  0  0  0  0  0  0  0  0
    2.4396   -9.0801   16.7132 C   0  0  0  0  0  0  0  0  0  0  0  0
   -0.2575   -8.6234   16.8582 C   0  0  0  0  0  0  0  0  0  0  0  0
    4.0614   -7.0367   27.0106 N   0  0  0  0  0  0  0  0  0  0  0  0
   -2.9133  -11.6279   18.7578 C   0  0  0  0  0  0  0  0  0  0  0  0
    4.5688  -10.1291   29.5758 C   0  0  0  0  0  0  0  0  0  0  0  0
    2.1008   -9.0410   29.1852 N   0  0  0  0  0  0  0  0  0  0  0  0
    3.4829  -10.5697   30.2091 N   0  0  0  0  0  0  0  0  0  0  0  0
   -0.3363   -6.1172   27.5628 C   0  0  0  0  0  0  0  0  0  0  0  0
    3.0331   -7.4400   27.6362 C   0  0  0  0  0  0  0  0  0  0  0  0
    5.4553   -8.5933   27.9644 C   0  0  0  0  0  0  0  0  0  0  0  0
   -2.3870  -12.8440   19.2512 C   0  0  0  0  0  0  0  0  0  0  0  0
    0.5331   -7.6964   16.2751 C   0  0  0  0  0  0  0  0  0  0  0  0
   -0.6740  -10.8737   18.0482 C   0  0  0  0  0  0  0  0  0  0  0  0
    5.6751  -10.5870   29.7637 O   0  0  0  0  0  0  0  0  0  0  0  0
    1.7612   -5.6483   26.7172 C   0  0  0  0  0  0  0  0  0  0  0  0
    0.2221   -9.8326   17.4055 C   0  0  0  0  0  0  0  0  0  0  0  0
    4.3850   -9.0730   28.6745 C   0  0  0  0  0  0  0  0  0  0  0  0
  1  7  4  0
  1 22  4  0
  2 17  4  0
  2 20  4  0
  2 28  4  0
  3  6  1  0
  3 19  1  0
  4 19  1  0
  4 26  1  0
  5 17  4  0
  5 18  4  0
  6 20  1  0
  6 26  1  0
  7 24  4  0
  8 15  4  0
  8 24  4  0
  9 14  4  0
  9 21  4  0
 10 12  4  0
 10 27  4  0
 11 12  4  0
 11 23  4  0
 13 23  4  0
 13 27  4  0
 14 20  4  0
 15 22  4  0
 16 18  4  0
 16 25  2  0
 16 28  4  0
 21 28  4  0
 24 27  1  0
M  END
$$$$

 Created by Python create_sdf_string function

 28 31  0  0  0  0  0  0  0  0999 V2000
   -1.0054  -13.0622   19.1198 C   0  0  0  0  0  0  0  0  0  0  0  0
    3.1478   -8.5360   28.5161 C   0  0  0  0  0  0  0  0  0  0  0  0
    0.5798   -7.1906   27.9330 C   0  0  0  0  0  0  0  0  0  0  0  0
    0.3978   -5.1561   26.6955 C   0  0  0  0  0  0  0  0  0  0  0  0
    2.3063  -10.0533   30.0125 C   0  0  0  0  0  0  0  0  0  0  0  0
    1.8591   -6.8254   27.4685 N   0  0  0  0  0  0  0  0  0  0  0  0
   -0.2167  -12.1055   18.5568 C   0  0  0  0  0  0  0  0  0  0  0  0
   -2.0661  -10.6994   18.1916 C   0  0  0  0  0  0  0  0  0  0  0  0
    5.2703   -7.5691   27.1123 C   0  0  0  0  0  0  0  0  0  0  0  0
    1.6204   -9.9887   17.2935 C   0  0  0  0  0  0  0  0  0  0  0  0
    1.8931   -7.9265   16.2047 C   0  0  0  0  0  0  0  0  0  0  0  0
    2.4396   -9.0801   16.7132 C   0  0  0  0  0  0  0  0  0  0  0  0
   -0.2575   -8.6234   16.8582 C   0  0  0  0  0  0  0  0  0  0  0  0
    4.0614   -7.0367   27.0106 N   0  0  0  0  0  0  0  0  0  0  0  0
   -2.9133  -11.6279   18.7578 C   0  0  0  0  0  0  0  0  0  0  0  0
    4.5688  -10.1291   29.5758 C   0  0  0  0  0  0  0  0  0  0  0  0
    2.1008   -9.0410   29.1852 N   0  0  0  0  0  0  0  0  0  0  0  0
    3.4829  -10.5697   30.2091 N   0  0  0  0  0  0  0  0  0  0  0  0
   -0.3363   -6.1172   27.5628 C   0  0  0  0  0  0  0  0  0  0  0  0
    3.0331   -7.4400   27.6362 C   0  0  0  0  0  0  0  0  0  0  0  0
    5.4553   -8.5933   27.9644 C   0  0  0  0  0  0  0  0  0  0  0  0
   -2.3870  -12.8440   19.2512 C   0  0  0  0  0  0  0  0  0  0  0  0
    0.5331   -7.6964   16.2751 C   0  0  0  0  0  0  0  0  0  0  0  0
   -0.6740  -10.8737   18.0482 C   0  0  0  0  0  0  0  0  0  0  0  0
    5.6751  -10.5870   29.7637 O   0  0  0  0  0  0  0  0  0  0  0  0
    1.7612   -5.6483   26.7172 C   0  0  0  0  0  0  0  0  0  0  0  0
    0.2221   -9.8326   17.4055 C   0  0  0  0  0  0  0  0  0  0  0  0
    4.3850   -9.0730   28.6745 C   0  0  0  0  0  0  0  0  0  0  0  0
  1  7  4  0
  1 22  4  0
  2 17  4  0
  2 20  4  0
  2 28  4  0
  3  6  1  0
  3 19  1  0
  4 19  1  0
  4 26  1  0
  5 17  4  0
  5 18  4  0
  6 20  1  0
  6 26  1  0
  7 24  4  0
  8 15  4  0
  8 24  4  0
  9 14  4  0
  9 21  4  0
 10 12  4  0
 10 27  4  0
 11 12  4  0
 11 23  4  0
 13 23  4  0
 13 27  4  0
 14 20  4  0
 15 22  4  0
 16 18  4  0
 16 25  2  0
 16 28  4  0
 21 28  4  0
 24 27  1  0
M  END
$$$$

 Created by Python create_sdf_string function

 28 31  0  0  0  0  0  0  0  0999 V2000
   -1.0054  -13.0622   19.1198 C   0  0  0  0  0  0  0  0  0  0  0  0
    3.1478   -8.5360   28.5161 C   0  0  0  0  0  0  0  0  0  0  0  0
    0.5798   -7.1906   27.9330 C   0  0  0  0  0  0  0  0  0  0  0  0
    0.3978   -5.1561   26.6955 C   0  0  0  0  0  0  0  0  0  0  0  0
    2.3063  -10.0533   30.0125 C   0  0  0  0  0  0  0  0  0  0  0  0
    1.8591   -6.8254   27.4685 N   0  0  0  0  0  0  0  0  0  0  0  0
   -0.2167  -12.1055   18.5568 C   0  0  0  0  0  0  0  0  0  0  0  0
   -2.0661  -10.6994   18.1916 C   0  0  0  0  0  0  0  0  0  0  0  0
    5.2703   -7.5691   27.1123 C   0  0  0  0  0  0  0  0  0  0  0  0
    1.6204   -9.9887   17.2935 C   0  0  0  0  0  0  0  0  0  0  0  0
    1.8931   -7.9265   16.2047 C   0  0  0  0  0  0  0  0  0  0  0  0
    2.4396   -9.0801   16.7132 C   0  0  0  0  0  0  0  0  0  0  0  0
   -0.2575   -8.6234   16.8582 C   0  0  0  0  0  0  0  0  0  0  0  0
    4.0614   -7.0367   27.0106 N   0  0  0  0  0  0  0  0  0  0  0  0
   -2.9133  -11.6279   18.7578 C   0  0  0  0  0  0  0  0  0  0  0  0
    4.5688  -10.1291   29.5758 C   0  0  0  0  0  0  0  0  0  0  0  0
    2.1008   -9.0410   29.1852 N   0  0  0  0  0  0  0  0  0  0  0  0
    3.4829  -10.5697   30.2091 N   0  0  0  0  0  0  0  0  0  0  0  0
   -0.3363   -6.1172   27.5628 C   0  0  0  0  0  0  0  0  0  0  0  0
    3.0331   -7.4400   27.6362 C   0  0  0  0  0  0  0  0  0  0  0  0
    5.4553   -8.5933   27.9644 C   0  0  0  0  0  0  0  0  0  0  0  0
   -2.3870  -12.8440   19.2512 C   0  0  0  0  0  0  0  0  0  0  0  0
    0.5331   -7.6964   16.2751 C   0  0  0  0  0  0  0  0  0  0  0  0
   -0.6740  -10.8737   18.0482 C   0  0  0  0  0  0  0  0  0  0  0  0
    5.6751  -10.5870   29.7637 O   0  0  0  0  0  0  0  0  0  0  0  0
    1.7612   -5.6483   26.7172 C   0  0  0  0  0  0  0  0  0  0  0  0
    0.2221   -9.8326   17.4055 C   0  0  0  0  0  0  0  0  0  0  0  0
    4.3850   -9.0730   28.6745 C   0  0  0  0  0  0  0  0  0  0  0  0
  1  7  4  0
  1 22  4  0
  2 17  4  0
  2 20  4  0
  2 28  4  0
  3  6  1  0
  3 19  1  0
  4 19  1  0
  4 26  1  0
  5 17  4  0
  5 18  4  0
  6 20  1  0
  6 26  1  0
  7 24  4  0
  8 15  4  0
  8 24  4  0
  9 14  4  0
  9 21  4  0
 10 12  4  0
 10 27  4  0
 11 12  4  0
 11 23  4  0
 13 23  4  0
 13 27  4  0
 14 20  4  0
 15 22  4  0
 16 18  4  0
 16 25  2  0
 16 28  4  0
 21 28  4  0
 24 27  1  0
M  END
$$$$

 Created by Python create_sdf_string function

 28 31  0  0  0  0  0  0  0  0999 V2000
   -1.0054  -13.0622   19.1198 C   0  0  0  0  0  0  0  0  0  0  0  0
    3.1478   -8.5360   28.5161 C   0  0  0  0  0  0  0  0  0  0  0  0
    0.5798   -7.1906   27.9330 C   0  0  0  0  0  0  0  0  0  0  0  0
    0.3978   -5.1561   26.6955 C   0  0  0  0  0  0  0  0  0  0  0  0
    2.3063  -10.0533   30.0125 C   0  0  0  0  0  0  0  0  0  0  0  0
    1.8591   -6.8254   27.4685 N   0  0  0  0  0  0  0  0  0  0  0  0
   -0.2167  -12.1055   18.5568 C   0  0  0  0  0  0  0  0  0  0  0  0
   -2.0661  -10.6994   18.1916 C   0  0  0  0  0  0  0  0  0  0  0  0
    5.2703   -7.5691   27.1123 C   0  0  0  0  0  0  0  0  0  0  0  0
    1.6204   -9.9887   17.2935 C   0  0  0  0  0  0  0  0  0  0  0  0
    1.8931   -7.9265   16.2047 C   0  0  0  0  0  0  0  0  0  0  0  0
    2.4396   -9.0801   16.7132 C   0  0  0  0  0  0  0  0  0  0  0  0
   -0.2575   -8.6234   16.8582 C   0  0  0  0  0  0  0  0  0  0  0  0
    4.0614   -7.0367   27.0106 N   0  0  0  0  0  0  0  0  0  0  0  0
   -2.9133  -11.6279   18.7578 C   0  0  0  0  0  0  0  0  0  0  0  0
    4.5688  -10.1291   29.5758 C   0  0  0  0  0  0  0  0  0  0  0  0
    2.1008   -9.0410   29.1852 N   0  0  0  0  0  0  0  0  0  0  0  0
    3.4829  -10.5697   30.2091 N   0  0  0  0  0  0  0  0  0  0  0  0
   -0.3363   -6.1172   27.5628 C   0  0  0  0  0  0  0  0  0  0  0  0
    3.0331   -7.4400   27.6362 C   0  0  0  0  0  0  0  0  0  0  0  0
    5.4553   -8.5933   27.9644 C   0  0  0  0  0  0  0  0  0  0  0  0
   -2.3870  -12.8440   19.2512 C   0  0  0  0  0  0  0  0  0  0  0  0
    0.5331   -7.6964   16.2751 C   0  0  0  0  0  0  0  0  0  0  0  0
   -0.6740  -10.8737   18.0482 C   0  0  0  0  0  0  0  0  0  0  0  0
    5.6751  -10.5870   29.7637 O   0  0  0  0  0  0  0  0  0  0  0  0
    1.7612   -5.6483   26.7172 C   0  0  0  0  0  0  0  0  0  0  0  0
    0.2221   -9.8326   17.4055 C   0  0  0  0  0  0  0  0  0  0  0  0
    4.3850   -9.0730   28.6745 C   0  0  0  0  0  0  0  0  0  0  0  0
  1  7  4  0
  1 22  4  0
  2 17  4  0
  2 20  4  0
  2 28  4  0
  3  6  1  0
  3 19  1  0
  4 19  1  0
  4 26  1  0
  5 17  4  0
  5 18  4  0
  6 20  1  0
  6 26  1  0
  7 24  4  0
  8 15  4  0
  8 24  4  0
  9 14  4  0
  9 21  4  0
 10 12  4  0
 10 27  4  0
 11 12  4  0
 11 23  4  0
 13 23  4  0
 13 27  4  0
 14 20  4  0
 15 22  4  0
 16 18  4  0
 16 25  2  0
 16 28  4  0
 21 28  4  0
 24 27  1  0
M  END
$$$$

 Created by Python create_sdf_string function

 28 31  0  0  0  0  0  0  0  0999 V2000
   -1.0054  -13.0622   19.1198 C   0  0  0  0  0  0  0  0  0  0  0  0
    3.1478   -8.5360   28.5161 C   0  0  0  0  0  0  0  0  0  0  0  0
    0.5798   -7.1906   27.9330 C   0  0  0  0  0  0  0  0  0  0  0  0
    0.3978   -5.1561   26.6955 C   0  0  0  0  0  0  0  0  0  0  0  0
    2.3063  -10.0533   30.0125 C   0  0  0  0  0  0  0  0  0  0  0  0
    1.8591   -6.8254   27.4685 N   0  0  0  0  0  0  0  0  0  0  0  0
   -0.2167  -12.1055   18.5568 C   0  0  0  0  0  0  0  0  0  0  0  0
   -2.0661  -10.6994   18.1916 C   0  0  0  0  0  0  0  0  0  0  0  0
    5.2703   -7.5691   27.1123 C   0  0  0  0  0  0  0  0  0  0  0  0
    1.6204   -9.9887   17.2935 C   0  0  0  0  0  0  0  0  0  0  0  0
    1.8931   -7.9265   16.2047 C   0  0  0  0  0  0  0  0  0  0  0  0
    2.4396   -9.0801   16.7132 C   0  0  0  0  0  0  0  0  0  0  0  0
   -0.2575   -8.6234   16.8582 C   0  0  0  0  0  0  0  0  0  0  0  0
    4.0614   -7.0367   27.0106 N   0  0  0  0  0  0  0  0  0  0  0  0
   -2.9133  -11.6279   18.7578 C   0  0  0  0  0  0  0  0  0  0  0  0
    4.5688  -10.1291   29.5758 C   0  0  0  0  0  0  0  0  0  0  0  0
    2.1008   -9.0410   29.1852 N   0  0  0  0  0  0  0  0  0  0  0  0
    3.4829  -10.5697   30.2091 N   0  0  0  0  0  0  0  0  0  0  0  0
   -0.3363   -6.1172   27.5628 C   0  0  0  0  0  0  0  0  0  0  0  0
    3.0331   -7.4400   27.6362 C   0  0  0  0  0  0  0  0  0  0  0  0
    5.4553   -8.5933   27.9644 C   0  0  0  0  0  0  0  0  0  0  0  0
   -2.3870  -12.8440   19.2512 C   0  0  0  0  0  0  0  0  0  0  0  0
    0.5331   -7.6964   16.2751 C   0  0  0  0  0  0  0  0  0  0  0  0
   -0.6740  -10.8737   18.0482 C   0  0  0  0  0  0  0  0  0  0  0  0
    5.6751  -10.5870   29.7637 O   0  0  0  0  0  0  0  0  0  0  0  0
    1.7612   -5.6483   26.7172 C   0  0  0  0  0  0  0  0  0  0  0  0
    0.2221   -9.8326   17.4055 C   0  0  0  0  0  0  0  0  0  0  0  0
    4.3850   -9.0730   28.6745 C   0  0  0  0  0  0  0  0  0  0  0  0
  1  7  4  0
  1 22  4  0
  2 17  4  0
  2 20  4  0
  2 28  4  0
  3  6  1  0
  3 19  1  0
  4 19  1  0
  4 26  1  0
  5 17  4  0
  5 18  4  0
  6 20  1  0
  6 26  1  0
  7 24  4  0
  8 15  4  0
  8 24  4  0
  9 14  4  0
  9 21  4  0
 10 12  4  0
 10 27  4  0
 11 12  4  0
 11 23  4  0
 13 23  4  0
 13 27  4  0
 14 20  4  0
 15 22  4  0
 16 18  4  0
 16 25  2  0
 16 28  4  0
 21 28  4  0
 24 27  1  0
M  END
$$$$

 Created by Python create_sdf_string function

 28 31  0  0  0  0  0  0  0  0999 V2000
   -1.0054  -13.0622   19.1198 C   0  0  0  0  0  0  0  0  0  0  0  0
    3.1478   -8.5360   28.5161 C   0  0  0  0  0  0  0  0  0  0  0  0
    0.5798   -7.1906   27.9330 C   0  0  0  0  0  0  0  0  0  0  0  0
    0.3978   -5.1561   26.6955 C   0  0  0  0  0  0  0  0  0  0  0  0
    2.3063  -10.0533   30.0125 C   0  0  0  0  0  0  0  0  0  0  0  0
    1.8591   -6.8254   27.4685 N   0  0  0  0  0  0  0  0  0  0  0  0
   -0.2167  -12.1055   18.5568 C   0  0  0  0  0  0  0  0  0  0  0  0
   -2.0661  -10.6994   18.1916 C   0  0  0  0  0  0  0  0  0  0  0  0
    5.2703   -7.5691   27.1123 C   0  0  0  0  0  0  0  0  0  0  0  0
    1.6204   -9.9887   17.2935 C   0  0  0  0  0  0  0  0  0  0  0  0
    1.8931   -7.9265   16.2047 C   0  0  0  0  0  0  0  0  0  0  0  0
    2.4396   -9.0801   16.7132 C   0  0  0  0  0  0  0  0  0  0  0  0
   -0.2575   -8.6234   16.8582 C   0  0  0  0  0  0  0  0  0  0  0  0
    4.0614   -7.0367   27.0106 N   0  0  0  0  0  0  0  0  0  0  0  0
   -2.9133  -11.6279   18.7578 C   0  0  0  0  0  0  0  0  0  0  0  0
    4.5688  -10.1291   29.5758 C   0  0  0  0  0  0  0  0  0  0  0  0
    2.1008   -9.0410   29.1852 N   0  0  0  0  0  0  0  0  0  0  0  0
    3.4829  -10.5697   30.2091 N   0  0  0  0  0  0  0  0  0  0  0  0
   -0.3363   -6.1172   27.5628 C   0  0  0  0  0  0  0  0  0  0  0  0
    3.0331   -7.4400   27.6362 C   0  0  0  0  0  0  0  0  0  0  0  0
    5.4553   -8.5933   27.9644 C   0  0  0  0  0  0  0  0  0  0  0  0
   -2.3870  -12.8440   19.2512 C   0  0  0  0  0  0  0  0  0  0  0  0
    0.5331   -7.6964   16.2751 C   0  0  0  0  0  0  0  0  0  0  0  0
   -0.6740  -10.8737   18.0482 C   0  0  0  0  0  0  0  0  0  0  0  0
    5.6751  -10.5870   29.7637 O   0  0  0  0  0  0  0  0  0  0  0  0
    1.7612   -5.6483   26.7172 C   0  0  0  0  0  0  0  0  0  0  0  0
    0.2221   -9.8326   17.4055 C   0  0  0  0  0  0  0  0  0  0  0  0
    4.3850   -9.0730   28.6745 C   0  0  0  0  0  0  0  0  0  0  0  0
  1  7  4  0
  1 22  4  0
  2 17  4  0
  2 20  4  0
  2 28  4  0
  3  6  1  0
  3 19  1  0
  4 19  1  0
  4 26  1  0
  5 17  4  0
  5 18  4  0
  6 20  1  0
  6 26  1  0
  7 24  4  0
  8 15  4  0
  8 24  4  0
  9 14  4  0
  9 21  4  0
 10 12  4  0
 10 27  4  0
 11 12  4  0
 11 23  4  0
 13 23  4  0
 13 27  4  0
 14 20  4  0
 15 22  4  0
 16 18  4  0
 16 25  2  0
 16 28  4  0
 21 28  4  0
 24 27  1  0
M  END
$$$$

 Created by Python create_sdf_string function

 28 31  0  0  0  0  0  0  0  0999 V2000
   -1.0054  -13.0622   19.1198 C   0  0  0  0  0  0  0  0  0  0  0  0
    3.1478   -8.5360   28.5161 C   0  0  0  0  0  0  0  0  0  0  0  0
    0.5798   -7.1906   27.9330 C   0  0  0  0  0  0  0  0  0  0  0  0
    0.3978   -5.1561   26.6955 C   0  0  0  0  0  0  0  0  0  0  0  0
    2.3063  -10.0533   30.0125 C   0  0  0  0  0  0  0  0  0  0  0  0
    1.8591   -6.8254   27.4685 N   0  0  0  0  0  0  0  0  0  0  0  0
   -0.2167  -12.1055   18.5568 C   0  0  0  0  0  0  0  0  0  0  0  0
   -2.0661  -10.6994   18.1916 C   0  0  0  0  0  0  0  0  0  0  0  0
    5.2703   -7.5691   27.1123 C   0  0  0  0  0  0  0  0  0  0  0  0
    1.6204   -9.9887   17.2935 C   0  0  0  0  0  0  0  0  0  0  0  0
    1.8931   -7.9265   16.2047 C   0  0  0  0  0  0  0  0  0  0  0  0
    2.4396   -9.0801   16.7132 C   0  0  0  0  0  0  0  0  0  0  0  0
   -0.2575   -8.6234   16.8582 C   0  0  0  0  0  0  0  0  0  0  0  0
    4.0614   -7.0367   27.0106 N   0  0  0  0  0  0  0  0  0  0  0  0
   -2.9133  -11.6279   18.7578 C   0  0  0  0  0  0  0  0  0  0  0  0
    4.5688  -10.1291   29.5758 C   0  0  0  0  0  0  0  0  0  0  0  0
    2.1008   -9.0410   29.1852 N   0  0  0  0  0  0  0  0  0  0  0  0
    3.4829  -10.5697   30.2091 N   0  0  0  0  0  0  0  0  0  0  0  0
   -0.3363   -6.1172   27.5628 C   0  0  0  0  0  0  0  0  0  0  0  0
    3.0331   -7.4400   27.6362 C   0  0  0  0  0  0  0  0  0  0  0  0
    5.4553   -8.5933   27.9644 C   0  0  0  0  0  0  0  0  0  0  0  0
   -2.3870  -12.8440   19.2512 C   0  0  0  0  0  0  0  0  0  0  0  0
    0.5331   -7.6964   16.2751 C   0  0  0  0  0  0  0  0  0  0  0  0
   -0.6740  -10.8737   18.0482 C   0  0  0  0  0  0  0  0  0  0  0  0
    5.6751  -10.5870   29.7637 O   0  0  0  0  0  0  0  0  0  0  0  0
    1.7612   -5.6483   26.7172 C   0  0  0  0  0  0  0  0  0  0  0  0
    0.2221   -9.8326   17.4055 C   0  0  0  0  0  0  0  0  0  0  0  0
    4.3850   -9.0730   28.6745 C   0  0  0  0  0  0  0  0  0  0  0  0
  1  7  4  0
  1 22  4  0
  2 17  4  0
  2 20  4  0
  2 28  4  0
  3  6  1  0
  3 19  1  0
  4 19  1  0
  4 26  1  0
  5 17  4  0
  5 18  4  0
  6 20  1  0
  6 26  1  0
  7 24  4  0
  8 15  4  0
  8 24  4  0
  9 14  4  0
  9 21  4  0
 10 12  4  0
 10 27  4  0
 11 12  4  0
 11 23  4  0
 13 23  4  0
 13 27  4  0
 14 20  4  0
 15 22  4  0
 16 18  4  0
 16 25  2  0
 16 28  4  0
 21 28  4  0
 24 27  1  0
M  END
$$$$

 Created by Python create_sdf_string function

 28 31  0  0  0  0  0  0  0  0999 V2000
   -1.0054  -13.0622   19.1198 C   0  0  0  0  0  0  0  0  0  0  0  0
    3.1478   -8.5360   28.5161 C   0  0  0  0  0  0  0  0  0  0  0  0
    0.5798   -7.1906   27.9330 C   0  0  0  0  0  0  0  0  0  0  0  0
    0.3978   -5.1561   26.6955 C   0  0  0  0  0  0  0  0  0  0  0  0
    2.3063  -10.0533   30.0125 C   0  0  0  0  0  0  0  0  0  0  0  0
    1.8591   -6.8254   27.4685 N   0  0  0  0  0  0  0  0  0  0  0  0
   -0.2167  -12.1055   18.5568 C   0  0  0  0  0  0  0  0  0  0  0  0
   -2.0661  -10.6994   18.1916 C   0  0  0  0  0  0  0  0  0  0  0  0
    5.2703   -7.5691   27.1123 C   0  0  0  0  0  0  0  0  0  0  0  0
    1.6204   -9.9887   17.2935 C   0  0  0  0  0  0  0  0  0  0  0  0
    1.8931   -7.9265   16.2047 C   0  0  0  0  0  0  0  0  0  0  0  0
    2.4396   -9.0801   16.7132 C   0  0  0  0  0  0  0  0  0  0  0  0
   -0.2575   -8.6234   16.8582 C   0  0  0  0  0  0  0  0  0  0  0  0
    4.0614   -7.0367   27.0106 N   0  0  0  0  0  0  0  0  0  0  0  0
   -2.9133  -11.6279   18.7578 C   0  0  0  0  0  0  0  0  0  0  0  0
    4.5688  -10.1291   29.5758 C   0  0  0  0  0  0  0  0  0  0  0  0
    2.1008   -9.0410   29.1852 N   0  0  0  0  0  0  0  0  0  0  0  0
    3.4829  -10.5697   30.2091 N   0  0  0  0  0  0  0  0  0  0  0  0
   -0.3363   -6.1172   27.5628 C   0  0  0  0  0  0  0  0  0  0  0  0
    3.0331   -7.4400   27.6362 C   0  0  0  0  0  0  0  0  0  0  0  0
    5.4553   -8.5933   27.9644 C   0  0  0  0  0  0  0  0  0  0  0  0
   -2.3870  -12.8440   19.2512 C   0  0  0  0  0  0  0  0  0  0  0  0
    0.5331   -7.6964   16.2751 C   0  0  0  0  0  0  0  0  0  0  0  0
   -0.6740  -10.8737   18.0482 C   0  0  0  0  0  0  0  0  0  0  0  0
    5.6751  -10.5870   29.7637 O   0  0  0  0  0  0  0  0  0  0  0  0
    1.7612   -5.6483   26.7172 C   0  0  0  0  0  0  0  0  0  0  0  0
    0.2221   -9.8326   17.4055 C   0  0  0  0  0  0  0  0  0  0  0  0
    4.3850   -9.0730   28.6745 C   0  0  0  0  0  0  0  0  0  0  0  0
  1  7  4  0
  1 22  4  0
  2 17  4  0
  2 20  4  0
  2 28  4  0
  3  6  1  0
  3 19  1  0
  4 19  1  0
  4 26  1  0
  5 17  4  0
  5 18  4  0
  6 20  1  0
  6 26  1  0
  7 24  4  0
  8 15  4  0
  8 24  4  0
  9 14  4  0
  9 21  4  0
 10 12  4  0
 10 27  4  0
 11 12  4  0
 11 23  4  0
 13 23  4  0
 13 27  4  0
 14 20  4  0
 15 22  4  0
 16 18  4  0
 16 25  2  0
 16 28  4  0
 21 28  4  0
 24 27  1  0
M  END
$$$$

 Created by Python create_sdf_string function

 28 31  0  0  0  0  0  0  0  0999 V2000
   -1.0054  -13.0622   19.1198 C   0  0  0  0  0  0  0  0  0  0  0  0
    3.1478   -8.5360   28.5161 C   0  0  0  0  0  0  0  0  0  0  0  0
    0.5798   -7.1906   27.9330 C   0  0  0  0  0  0  0  0  0  0  0  0
    0.3978   -5.1561   26.6955 C   0  0  0  0  0  0  0  0  0  0  0  0
    2.3063  -10.0533   30.0125 C   0  0  0  0  0  0  0  0  0  0  0  0
    1.8591   -6.8254   27.4685 N   0  0  0  0  0  0  0  0  0  0  0  0
   -0.2167  -12.1055   18.5568 C   0  0  0  0  0  0  0  0  0  0  0  0
   -2.0661  -10.6994   18.1916 C   0  0  0  0  0  0  0  0  0  0  0  0
    5.2703   -7.5691   27.1123 C   0  0  0  0  0  0  0  0  0  0  0  0
    1.6204   -9.9887   17.2935 C   0  0  0  0  0  0  0  0  0  0  0  0
    1.8931   -7.9265   16.2047 C   0  0  0  0  0  0  0  0  0  0  0  0
    2.4396   -9.0801   16.7132 C   0  0  0  0  0  0  0  0  0  0  0  0
   -0.2575   -8.6234   16.8582 C   0  0  0  0  0  0  0  0  0  0  0  0
    4.0614   -7.0367   27.0106 N   0  0  0  0  0  0  0  0  0  0  0  0
   -2.9133  -11.6279   18.7578 C   0  0  0  0  0  0  0  0  0  0  0  0
    4.5688  -10.1291   29.5758 C   0  0  0  0  0  0  0  0  0  0  0  0
    2.1008   -9.0410   29.1852 N   0  0  0  0  0  0  0  0  0  0  0  0
    3.4829  -10.5697   30.2091 N   0  0  0  0  0  0  0  0  0  0  0  0
   -0.3363   -6.1172   27.5628 C   0  0  0  0  0  0  0  0  0  0  0  0
    3.0331   -7.4400   27.6362 C   0  0  0  0  0  0  0  0  0  0  0  0
    5.4553   -8.5933   27.9644 C   0  0  0  0  0  0  0  0  0  0  0  0
   -2.3870  -12.8440   19.2512 C   0  0  0  0  0  0  0  0  0  0  0  0
    0.5331   -7.6964   16.2751 C   0  0  0  0  0  0  0  0  0  0  0  0
   -0.6740  -10.8737   18.0482 C   0  0  0  0  0  0  0  0  0  0  0  0
    5.6751  -10.5870   29.7637 O   0  0  0  0  0  0  0  0  0  0  0  0
    1.7612   -5.6483   26.7172 C   0  0  0  0  0  0  0  0  0  0  0  0
    0.2221   -9.8326   17.4055 C   0  0  0  0  0  0  0  0  0  0  0  0
    4.3850   -9.0730   28.6745 C   0  0  0  0  0  0  0  0  0  0  0  0
  1  7  4  0
  1 22  4  0
  2 17  4  0
  2 20  4  0
  2 28  4  0
  3  6  1  0
  3 19  1  0
  4 19  1  0
  4 26  1  0
  5 17  4  0
  5 18  4  0
  6 20  1  0
  6 26  1  0
  7 24  4  0
  8 15  4  0
  8 24  4  0
  9 14  4  0
  9 21  4  0
 10 12  4  0
 10 27  4  0
 11 12  4  0
 11 23  4  0
 13 23  4  0
 13 27  4  0
 14 20  4  0
 15 22  4  0
 16 18  4  0
 16 25  2  0
 16 28  4  0
 21 28  4  0
 24 27  1  0
M  END
$$$$

 Created by Python create_sdf_string function

 28 31  0  0  0  0  0  0  0  0999 V2000
   -1.0054  -13.0622   19.1198 C   0  0  0  0  0  0  0  0  0  0  0  0
    3.1478   -8.5360   28.5161 C   0  0  0  0  0  0  0  0  0  0  0  0
    0.5798   -7.1906   27.9330 C   0  0  0  0  0  0  0  0  0  0  0  0
    0.3978   -5.1561   26.6955 C   0  0  0  0  0  0  0  0  0  0  0  0
    2.3063  -10.0533   30.0125 C   0  0  0  0  0  0  0  0  0  0  0  0
    1.8591   -6.8254   27.4685 N   0  0  0  0  0  0  0  0  0  0  0  0
   -0.2167  -12.1055   18.5568 C   0  0  0  0  0  0  0  0  0  0  0  0
   -2.0661  -10.6994   18.1916 C   0  0  0  0  0  0  0  0  0  0  0  0
    5.2703   -7.5691   27.1123 C   0  0  0  0  0  0  0  0  0  0  0  0
    1.6204   -9.9887   17.2935 C   0  0  0  0  0  0  0  0  0  0  0  0
    1.8931   -7.9265   16.2047 C   0  0  0  0  0  0  0  0  0  0  0  0
    2.4396   -9.0801   16.7132 C   0  0  0  0  0  0  0  0  0  0  0  0
   -0.2575   -8.6234   16.8582 C   0  0  0  0  0  0  0  0  0  0  0  0
    4.0614   -7.0367   27.0106 N   0  0  0  0  0  0  0  0  0  0  0  0
   -2.9133  -11.6279   18.7578 C   0  0  0  0  0  0  0  0  0  0  0  0
    4.5688  -10.1291   29.5758 C   0  0  0  0  0  0  0  0  0  0  0  0
    2.1008   -9.0410   29.1852 N   0  0  0  0  0  0  0  0  0  0  0  0
    3.4829  -10.5697   30.2091 N   0  0  0  0  0  0  0  0  0  0  0  0
   -0.3363   -6.1172   27.5628 C   0  0  0  0  0  0  0  0  0  0  0  0
    3.0331   -7.4400   27.6362 C   0  0  0  0  0  0  0  0  0  0  0  0
    5.4553   -8.5933   27.9644 C   0  0  0  0  0  0  0  0  0  0  0  0
   -2.3870  -12.8440   19.2512 C   0  0  0  0  0  0  0  0  0  0  0  0
    0.5331   -7.6964   16.2751 C   0  0  0  0  0  0  0  0  0  0  0  0
   -0.6740  -10.8737   18.0482 C   0  0  0  0  0  0  0  0  0  0  0  0
    5.6751  -10.5870   29.7637 O   0  0  0  0  0  0  0  0  0  0  0  0
    1.7612   -5.6483   26.7172 C   0  0  0  0  0  0  0  0  0  0  0  0
    0.2221   -9.8326   17.4055 C   0  0  0  0  0  0  0  0  0  0  0  0
    4.3850   -9.0730   28.6745 C   0  0  0  0  0  0  0  0  0  0  0  0
  1  7  4  0
  1 22  4  0
  2 17  4  0
  2 20  4  0
  2 28  4  0
  3  6  1  0
  3 19  1  0
  4 19  1  0
  4 26  1  0
  5 17  4  0
  5 18  4  0
  6 20  1  0
  6 26  1  0
  7 24  4  0
  8 15  4  0
  8 24  4  0
  9 14  4  0
  9 21  4  0
 10 12  4  0
 10 27  4  0
 11 12  4  0
 11 23  4  0
 13 23  4  0
 13 27  4  0
 14 20  4  0
 15 22  4  0
 16 18  4  0
 16 25  2  0
 16 28  4  0
 21 28  4  0
 24 27  1  0
M  END
$$$$

 Created by Python create_sdf_string function

 28 31  0  0  0  0  0  0  0  0999 V2000
   -1.0054  -13.0622   19.1198 C   0  0  0  0  0  0  0  0  0  0  0  0
    3.1478   -8.5360   28.5161 C   0  0  0  0  0  0  0  0  0  0  0  0
    0.5798   -7.1906   27.9330 C   0  0  0  0  0  0  0  0  0  0  0  0
    0.3978   -5.1561   26.6955 C   0  0  0  0  0  0  0  0  0  0  0  0
    2.3063  -10.0533   30.0125 C   0  0  0  0  0  0  0  0  0  0  0  0
    1.8591   -6.8254   27.4685 N   0  0  0  0  0  0  0  0  0  0  0  0
   -0.2167  -12.1055   18.5568 C   0  0  0  0  0  0  0  0  0  0  0  0
   -2.0661  -10.6994   18.1916 C   0  0  0  0  0  0  0  0  0  0  0  0
    5.2703   -7.5691   27.1123 C   0  0  0  0  0  0  0  0  0  0  0  0
    1.6204   -9.9887   17.2935 C   0  0  0  0  0  0  0  0  0  0  0  0
    1.8931   -7.9265   16.2047 C   0  0  0  0  0  0  0  0  0  0  0  0
    2.4396   -9.0801   16.7132 C   0  0  0  0  0  0  0  0  0  0  0  0
   -0.2575   -8.6234   16.8582 C   0  0  0  0  0  0  0  0  0  0  0  0
    4.0614   -7.0367   27.0106 N   0  0  0  0  0  0  0  0  0  0  0  0
   -2.9133  -11.6279   18.7578 C   0  0  0  0  0  0  0  0  0  0  0  0
    4.5688  -10.1291   29.5758 C   0  0  0  0  0  0  0  0  0  0  0  0
    2.1008   -9.0410   29.1852 N   0  0  0  0  0  0  0  0  0  0  0  0
    3.4829  -10.5697   30.2091 N   0  0  0  0  0  0  0  0  0  0  0  0
   -0.3363   -6.1172   27.5628 C   0  0  0  0  0  0  0  0  0  0  0  0
    3.0331   -7.4400   27.6362 C   0  0  0  0  0  0  0  0  0  0  0  0
    5.4553   -8.5933   27.9644 C   0  0  0  0  0  0  0  0  0  0  0  0
   -2.3870  -12.8440   19.2512 C   0  0  0  0  0  0  0  0  0  0  0  0
    0.5331   -7.6964   16.2751 C   0  0  0  0  0  0  0  0  0  0  0  0
   -0.6740  -10.8737   18.0482 C   0  0  0  0  0  0  0  0  0  0  0  0
    5.6751  -10.5870   29.7637 O   0  0  0  0  0  0  0  0  0  0  0  0
    1.7612   -5.6483   26.7172 C   0  0  0  0  0  0  0  0  0  0  0  0
    0.2221   -9.8326   17.4055 C   0  0  0  0  0  0  0  0  0  0  0  0
    4.3850   -9.0730   28.6745 C   0  0  0  0  0  0  0  0  0  0  0  0
  1  7  4  0
  1 22  4  0
  2 17  4  0
  2 20  4  0
  2 28  4  0
  3  6  1  0
  3 19  1  0
  4 19  1  0
  4 26  1  0
  5 17  4  0
  5 18  4  0
  6 20  1  0
  6 26  1  0
  7 24  4  0
  8 15  4  0
  8 24  4  0
  9 14  4  0
  9 21  4  0
 10 12  4  0
 10 27  4  0
 11 12  4  0
 11 23  4  0
 13 23  4  0
 13 27  4  0
 14 20  4  0
 15 22  4  0
 16 18  4  0
 16 25  2  0
 16 28  4  0
 21 28  4  0
 24 27  1  0
M  END
$$$$

 Created by Python create_sdf_string function

 28 31  0  0  0  0  0  0  0  0999 V2000
   -1.0054  -13.0622   19.1198 C   0  0  0  0  0  0  0  0  0  0  0  0
    3.1478   -8.5360   28.5161 C   0  0  0  0  0  0  0  0  0  0  0  0
    0.5798   -7.1906   27.9330 C   0  0  0  0  0  0  0  0  0  0  0  0
    0.3978   -5.1561   26.6955 C   0  0  0  0  0  0  0  0  0  0  0  0
    2.3063  -10.0533   30.0125 C   0  0  0  0  0  0  0  0  0  0  0  0
    1.8591   -6.8254   27.4685 N   0  0  0  0  0  0  0  0  0  0  0  0
   -0.2167  -12.1055   18.5568 C   0  0  0  0  0  0  0  0  0  0  0  0
   -2.0661  -10.6994   18.1916 C   0  0  0  0  0  0  0  0  0  0  0  0
    5.2703   -7.5691   27.1123 C   0  0  0  0  0  0  0  0  0  0  0  0
    1.6204   -9.9887   17.2935 C   0  0  0  0  0  0  0  0  0  0  0  0
    1.8931   -7.9265   16.2047 C   0  0  0  0  0  0  0  0  0  0  0  0
    2.4396   -9.0801   16.7132 C   0  0  0  0  0  0  0  0  0  0  0  0
   -0.2575   -8.6234   16.8582 C   0  0  0  0  0  0  0  0  0  0  0  0
    4.0614   -7.0367   27.0106 N   0  0  0  0  0  0  0  0  0  0  0  0
   -2.9133  -11.6279   18.7578 C   0  0  0  0  0  0  0  0  0  0  0  0
    4.5688  -10.1291   29.5758 C   0  0  0  0  0  0  0  0  0  0  0  0
    2.1008   -9.0410   29.1852 N   0  0  0  0  0  0  0  0  0  0  0  0
    3.4829  -10.5697   30.2091 N   0  0  0  0  0  0  0  0  0  0  0  0
   -0.3363   -6.1172   27.5628 C   0  0  0  0  0  0  0  0  0  0  0  0
    3.0331   -7.4400   27.6362 C   0  0  0  0  0  0  0  0  0  0  0  0
    5.4553   -8.5933   27.9644 C   0  0  0  0  0  0  0  0  0  0  0  0
   -2.3870  -12.8440   19.2512 C   0  0  0  0  0  0  0  0  0  0  0  0
    0.5331   -7.6964   16.2751 C   0  0  0  0  0  0  0  0  0  0  0  0
   -0.6740  -10.8737   18.0482 C   0  0  0  0  0  0  0  0  0  0  0  0
    5.6751  -10.5870   29.7637 O   0  0  0  0  0  0  0  0  0  0  0  0
    1.7612   -5.6483   26.7172 C   0  0  0  0  0  0  0  0  0  0  0  0
    0.2221   -9.8326   17.4055 C   0  0  0  0  0  0  0  0  0  0  0  0
    4.3850   -9.0730   28.6745 C   0  0  0  0  0  0  0  0  0  0  0  0
  1  7  4  0
  1 22  4  0
  2 17  4  0
  2 20  4  0
  2 28  4  0
  3  6  1  0
  3 19  1  0
  4 19  1  0
  4 26  1  0
  5 17  4  0
  5 18  4  0
  6 20  1  0
  6 26  1  0
  7 24  4  0
  8 15  4  0
  8 24  4  0
  9 14  4  0
  9 21  4  0
 10 12  4  0
 10 27  4  0
 11 12  4  0
 11 23  4  0
 13 23  4  0
 13 27  4  0
 14 20  4  0
 15 22  4  0
 16 18  4  0
 16 25  2  0
 16 28  4  0
 21 28  4  0
 24 27  1  0
M  END
$$$$

 Created by Python create_sdf_string function

 28 31  0  0  0  0  0  0  0  0999 V2000
   -1.0054  -13.0622   19.1198 C   0  0  0  0  0  0  0  0  0  0  0  0
    3.1478   -8.5360   28.5161 C   0  0  0  0  0  0  0  0  0  0  0  0
    0.5798   -7.1906   27.9330 C   0  0  0  0  0  0  0  0  0  0  0  0
    0.3978   -5.1561   26.6955 C   0  0  0  0  0  0  0  0  0  0  0  0
    2.3063  -10.0533   30.0125 C   0  0  0  0  0  0  0  0  0  0  0  0
    1.8591   -6.8254   27.4685 N   0  0  0  0  0  0  0  0  0  0  0  0
   -0.2167  -12.1055   18.5568 C   0  0  0  0  0  0  0  0  0  0  0  0
   -2.0661  -10.6994   18.1916 C   0  0  0  0  0  0  0  0  0  0  0  0
    5.2703   -7.5691   27.1123 C   0  0  0  0  0  0  0  0  0  0  0  0
    1.6204   -9.9887   17.2935 C   0  0  0  0  0  0  0  0  0  0  0  0
    1.8931   -7.9265   16.2047 C   0  0  0  0  0  0  0  0  0  0  0  0
    2.4396   -9.0801   16.7132 C   0  0  0  0  0  0  0  0  0  0  0  0
   -0.2575   -8.6234   16.8582 C   0  0  0  0  0  0  0  0  0  0  0  0
    4.0614   -7.0367   27.0106 N   0  0  0  0  0  0  0  0  0  0  0  0
   -2.9133  -11.6279   18.7578 C   0  0  0  0  0  0  0  0  0  0  0  0
    4.5688  -10.1291   29.5758 C   0  0  0  0  0  0  0  0  0  0  0  0
    2.1008   -9.0410   29.1852 N   0  0  0  0  0  0  0  0  0  0  0  0
    3.4829  -10.5697   30.2091 N   0  0  0  0  0  0  0  0  0  0  0  0
   -0.3363   -6.1172   27.5628 C   0  0  0  0  0  0  0  0  0  0  0  0
    3.0331   -7.4400   27.6362 C   0  0  0  0  0  0  0  0  0  0  0  0
    5.4553   -8.5933   27.9644 C   0  0  0  0  0  0  0  0  0  0  0  0
   -2.3870  -12.8440   19.2512 C   0  0  0  0  0  0  0  0  0  0  0  0
    0.5331   -7.6964   16.2751 C   0  0  0  0  0  0  0  0  0  0  0  0
   -0.6740  -10.8737   18.0482 C   0  0  0  0  0  0  0  0  0  0  0  0
    5.6751  -10.5870   29.7637 O   0  0  0  0  0  0  0  0  0  0  0  0
    1.7612   -5.6483   26.7172 C   0  0  0  0  0  0  0  0  0  0  0  0
    0.2221   -9.8326   17.4055 C   0  0  0  0  0  0  0  0  0  0  0  0
    4.3850   -9.0730   28.6745 C   0  0  0  0  0  0  0  0  0  0  0  0
  1  7  4  0
  1 22  4  0
  2 17  4  0
  2 20  4  0
  2 28  4  0
  3  6  1  0
  3 19  1  0
  4 19  1  0
  4 26  1  0
  5 17  4  0
  5 18  4  0
  6 20  1  0
  6 26  1  0
  7 24  4  0
  8 15  4  0
  8 24  4  0
  9 14  4  0
  9 21  4  0
 10 12  4  0
 10 27  4  0
 11 12  4  0
 11 23  4  0
 13 23  4  0
 13 27  4  0
 14 20  4  0
 15 22  4  0
 16 18  4  0
 16 25  2  0
 16 28  4  0
 21 28  4  0
 24 27  1  0
M  END
$$$$

 Created by Python create_sdf_string function

 28 31  0  0  0  0  0  0  0  0999 V2000
   -1.0054  -13.0622   19.1198 C   0  0  0  0  0  0  0  0  0  0  0  0
    3.1478   -8.5360   28.5161 C   0  0  0  0  0  0  0  0  0  0  0  0
    0.5798   -7.1906   27.9330 C   0  0  0  0  0  0  0  0  0  0  0  0
    0.3978   -5.1561   26.6955 C   0  0  0  0  0  0  0  0  0  0  0  0
    2.3063  -10.0533   30.0125 C   0  0  0  0  0  0  0  0  0  0  0  0
    1.8591   -6.8254   27.4685 N   0  0  0  0  0  0  0  0  0  0  0  0
   -0.2167  -12.1055   18.5568 C   0  0  0  0  0  0  0  0  0  0  0  0
   -2.0661  -10.6994   18.1916 C   0  0  0  0  0  0  0  0  0  0  0  0
    5.2703   -7.5691   27.1123 C   0  0  0  0  0  0  0  0  0  0  0  0
    1.6204   -9.9887   17.2935 C   0  0  0  0  0  0  0  0  0  0  0  0
    1.8931   -7.9265   16.2047 C   0  0  0  0  0  0  0  0  0  0  0  0
    2.4396   -9.0801   16.7132 C   0  0  0  0  0  0  0  0  0  0  0  0
   -0.2575   -8.6234   16.8582 C   0  0  0  0  0  0  0  0  0  0  0  0
    4.0614   -7.0367   27.0106 N   0  0  0  0  0  0  0  0  0  0  0  0
   -2.9133  -11.6279   18.7578 C   0  0  0  0  0  0  0  0  0  0  0  0
    4.5688  -10.1291   29.5758 C   0  0  0  0  0  0  0  0  0  0  0  0
    2.1008   -9.0410   29.1852 N   0  0  0  0  0  0  0  0  0  0  0  0
    3.4829  -10.5697   30.2091 N   0  0  0  0  0  0  0  0  0  0  0  0
   -0.3363   -6.1172   27.5628 C   0  0  0  0  0  0  0  0  0  0  0  0
    3.0331   -7.4400   27.6362 C   0  0  0  0  0  0  0  0  0  0  0  0
    5.4553   -8.5933   27.9644 C   0  0  0  0  0  0  0  0  0  0  0  0
   -2.3870  -12.8440   19.2512 C   0  0  0  0  0  0  0  0  0  0  0  0
    0.5331   -7.6964   16.2751 C   0  0  0  0  0  0  0  0  0  0  0  0
   -0.6740  -10.8737   18.0482 C   0  0  0  0  0  0  0  0  0  0  0  0
    5.6751  -10.5870   29.7637 O   0  0  0  0  0  0  0  0  0  0  0  0
    1.7612   -5.6483   26.7172 C   0  0  0  0  0  0  0  0  0  0  0  0
    0.2221   -9.8326   17.4055 C   0  0  0  0  0  0  0  0  0  0  0  0
    4.3850   -9.0730   28.6745 C   0  0  0  0  0  0  0  0  0  0  0  0
  1  7  4  0
  1 22  4  0
  2 17  4  0
  2 20  4  0
  2 28  4  0
  3  6  1  0
  3 19  1  0
  4 19  1  0
  4 26  1  0
  5 17  4  0
  5 18  4  0
  6 20  1  0
  6 26  1  0
  7 24  4  0
  8 15  4  0
  8 24  4  0
  9 14  4  0
  9 21  4  0
 10 12  4  0
 10 27  4  0
 11 12  4  0
 11 23  4  0
 13 23  4  0
 13 27  4  0
 14 20  4  0
 15 22  4  0
 16 18  4  0
 16 25  2  0
 16 28  4  0
 21 28  4  0
 24 27  1  0
M  END
$$$$

 Created by Python create_sdf_string function

 28 31  0  0  0  0  0  0  0  0999 V2000
   -1.0054  -13.0622   19.1198 C   0  0  0  0  0  0  0  0  0  0  0  0
    3.1478   -8.5360   28.5161 C   0  0  0  0  0  0  0  0  0  0  0  0
    0.5798   -7.1906   27.9330 C   0  0  0  0  0  0  0  0  0  0  0  0
    0.3978   -5.1561   26.6955 C   0  0  0  0  0  0  0  0  0  0  0  0
    2.3063  -10.0533   30.0125 C   0  0  0  0  0  0  0  0  0  0  0  0
    1.8591   -6.8254   27.4685 N   0  0  0  0  0  0  0  0  0  0  0  0
   -0.2167  -12.1055   18.5568 C   0  0  0  0  0  0  0  0  0  0  0  0
   -2.0661  -10.6994   18.1916 C   0  0  0  0  0  0  0  0  0  0  0  0
    5.2703   -7.5691   27.1123 C   0  0  0  0  0  0  0  0  0  0  0  0
    1.6204   -9.9887   17.2935 C   0  0  0  0  0  0  0  0  0  0  0  0
    1.8931   -7.9265   16.2047 C   0  0  0  0  0  0  0  0  0  0  0  0
    2.4396   -9.0801   16.7132 C   0  0  0  0  0  0  0  0  0  0  0  0
   -0.2575   -8.6234   16.8582 C   0  0  0  0  0  0  0  0  0  0  0  0
    4.0614   -7.0367   27.0106 N   0  0  0  0  0  0  0  0  0  0  0  0
   -2.9133  -11.6279   18.7578 C   0  0  0  0  0  0  0  0  0  0  0  0
    4.5688  -10.1291   29.5758 C   0  0  0  0  0  0  0  0  0  0  0  0
    2.1008   -9.0410   29.1852 N   0  0  0  0  0  0  0  0  0  0  0  0
    3.4829  -10.5697   30.2091 N   0  0  0  0  0  0  0  0  0  0  0  0
   -0.3363   -6.1172   27.5628 C   0  0  0  0  0  0  0  0  0  0  0  0
    3.0331   -7.4400   27.6362 C   0  0  0  0  0  0  0  0  0  0  0  0
    5.4553   -8.5933   27.9644 C   0  0  0  0  0  0  0  0  0  0  0  0
   -2.3870  -12.8440   19.2512 C   0  0  0  0  0  0  0  0  0  0  0  0
    0.5331   -7.6964   16.2751 C   0  0  0  0  0  0  0  0  0  0  0  0
   -0.6740  -10.8737   18.0482 C   0  0  0  0  0  0  0  0  0  0  0  0
    5.6751  -10.5870   29.7637 O   0  0  0  0  0  0  0  0  0  0  0  0
    1.7612   -5.6483   26.7172 C   0  0  0  0  0  0  0  0  0  0  0  0
    0.2221   -9.8326   17.4055 C   0  0  0  0  0  0  0  0  0  0  0  0
    4.3850   -9.0730   28.6745 C   0  0  0  0  0  0  0  0  0  0  0  0
  1  7  4  0
  1 22  4  0
  2 17  4  0
  2 20  4  0
  2 28  4  0
  3  6  1  0
  3 19  1  0
  4 19  1  0
  4 26  1  0
  5 17  4  0
  5 18  4  0
  6 20  1  0
  6 26  1  0
  7 24  4  0
  8 15  4  0
  8 24  4  0
  9 14  4  0
  9 21  4  0
 10 12  4  0
 10 27  4  0
 11 12  4  0
 11 23  4  0
 13 23  4  0
 13 27  4  0
 14 20  4  0
 15 22  4  0
 16 18  4  0
 16 25  2  0
 16 28  4  0
 21 28  4  0
 24 27  1  0
M  END
$$$$

 Created by Python create_sdf_string function

 28 31  0  0  0  0  0  0  0  0999 V2000
   -1.0054  -13.0622   19.1198 C   0  0  0  0  0  0  0  0  0  0  0  0
    3.1478   -8.5360   28.5161 C   0  0  0  0  0  0  0  0  0  0  0  0
    0.5798   -7.1906   27.9330 C   0  0  0  0  0  0  0  0  0  0  0  0
    0.3978   -5.1561   26.6955 C   0  0  0  0  0  0  0  0  0  0  0  0
    2.3063  -10.0533   30.0125 C   0  0  0  0  0  0  0  0  0  0  0  0
    1.8591   -6.8254   27.4685 N   0  0  0  0  0  0  0  0  0  0  0  0
   -0.2167  -12.1055   18.5568 C   0  0  0  0  0  0  0  0  0  0  0  0
   -2.0661  -10.6994   18.1916 C   0  0  0  0  0  0  0  0  0  0  0  0
    5.2703   -7.5691   27.1123 C   0  0  0  0  0  0  0  0  0  0  0  0
    1.6204   -9.9887   17.2935 C   0  0  0  0  0  0  0  0  0  0  0  0
    1.8931   -7.9265   16.2047 C   0  0  0  0  0  0  0  0  0  0  0  0
    2.4396   -9.0801   16.7132 C   0  0  0  0  0  0  0  0  0  0  0  0
   -0.2575   -8.6234   16.8582 C   0  0  0  0  0  0  0  0  0  0  0  0
    4.0614   -7.0367   27.0106 N   0  0  0  0  0  0  0  0  0  0  0  0
   -2.9133  -11.6279   18.7578 C   0  0  0  0  0  0  0  0  0  0  0  0
    4.5688  -10.1291   29.5758 C   0  0  0  0  0  0  0  0  0  0  0  0
    2.1008   -9.0410   29.1852 N   0  0  0  0  0  0  0  0  0  0  0  0
    3.4829  -10.5697   30.2091 N   0  0  0  0  0  0  0  0  0  0  0  0
   -0.3363   -6.1172   27.5628 C   0  0  0  0  0  0  0  0  0  0  0  0
    3.0331   -7.4400   27.6362 C   0  0  0  0  0  0  0  0  0  0  0  0
    5.4553   -8.5933   27.9644 C   0  0  0  0  0  0  0  0  0  0  0  0
   -2.3870  -12.8440   19.2512 C   0  0  0  0  0  0  0  0  0  0  0  0
    0.5331   -7.6964   16.2751 C   0  0  0  0  0  0  0  0  0  0  0  0
   -0.6740  -10.8737   18.0482 C   0  0  0  0  0  0  0  0  0  0  0  0
    5.6751  -10.5870   29.7637 O   0  0  0  0  0  0  0  0  0  0  0  0
    1.7612   -5.6483   26.7172 C   0  0  0  0  0  0  0  0  0  0  0  0
    0.2221   -9.8326   17.4055 C   0  0  0  0  0  0  0  0  0  0  0  0
    4.3850   -9.0730   28.6745 C   0  0  0  0  0  0  0  0  0  0  0  0
  1  7  4  0
  1 22  4  0
  2 17  4  0
  2 20  4  0
  2 28  4  0
  3  6  1  0
  3 19  1  0
  4 19  1  0
  4 26  1  0
  5 17  4  0
  5 18  4  0
  6 20  1  0
  6 26  1  0
  7 24  4  0
  8 15  4  0
  8 24  4  0
  9 14  4  0
  9 21  4  0
 10 12  4  0
 10 27  4  0
 11 12  4  0
 11 23  4  0
 13 23  4  0
 13 27  4  0
 14 20  4  0
 15 22  4  0
 16 18  4  0
 16 25  2  0
 16 28  4  0
 21 28  4  0
 24 27  1  0
M  END
$$$$

 Created by Python create_sdf_string function

 28 31  0  0  0  0  0  0  0  0999 V2000
   -1.0054  -13.0622   19.1198 C   0  0  0  0  0  0  0  0  0  0  0  0
    3.1478   -8.5360   28.5161 C   0  0  0  0  0  0  0  0  0  0  0  0
    0.5798   -7.1906   27.9330 C   0  0  0  0  0  0  0  0  0  0  0  0
    0.3978   -5.1561   26.6955 C   0  0  0  0  0  0  0  0  0  0  0  0
    2.3063  -10.0533   30.0125 C   0  0  0  0  0  0  0  0  0  0  0  0
    1.8591   -6.8254   27.4685 N   0  0  0  0  0  0  0  0  0  0  0  0
   -0.2167  -12.1055   18.5568 C   0  0  0  0  0  0  0  0  0  0  0  0
   -2.0661  -10.6994   18.1916 C   0  0  0  0  0  0  0  0  0  0  0  0
    5.2703   -7.5691   27.1123 C   0  0  0  0  0  0  0  0  0  0  0  0
    1.6204   -9.9887   17.2935 C   0  0  0  0  0  0  0  0  0  0  0  0
    1.8931   -7.9265   16.2047 C   0  0  0  0  0  0  0  0  0  0  0  0
    2.4396   -9.0801   16.7132 C   0  0  0  0  0  0  0  0  0  0  0  0
   -0.2575   -8.6234   16.8582 C   0  0  0  0  0  0  0  0  0  0  0  0
    4.0614   -7.0367   27.0106 N   0  0  0  0  0  0  0  0  0  0  0  0
   -2.9133  -11.6279   18.7578 C   0  0  0  0  0  0  0  0  0  0  0  0
    4.5688  -10.1291   29.5758 C   0  0  0  0  0  0  0  0  0  0  0  0
    2.1008   -9.0410   29.1852 N   0  0  0  0  0  0  0  0  0  0  0  0
    3.4829  -10.5697   30.2091 N   0  0  0  0  0  0  0  0  0  0  0  0
   -0.3363   -6.1172   27.5628 C   0  0  0  0  0  0  0  0  0  0  0  0
    3.0331   -7.4400   27.6362 C   0  0  0  0  0  0  0  0  0  0  0  0
    5.4553   -8.5933   27.9644 C   0  0  0  0  0  0  0  0  0  0  0  0
   -2.3870  -12.8440   19.2512 C   0  0  0  0  0  0  0  0  0  0  0  0
    0.5331   -7.6964   16.2751 C   0  0  0  0  0  0  0  0  0  0  0  0
   -0.6740  -10.8737   18.0482 C   0  0  0  0  0  0  0  0  0  0  0  0
    5.6751  -10.5870   29.7637 O   0  0  0  0  0  0  0  0  0  0  0  0
    1.7612   -5.6483   26.7172 C   0  0  0  0  0  0  0  0  0  0  0  0
    0.2221   -9.8326   17.4055 C   0  0  0  0  0  0  0  0  0  0  0  0
    4.3850   -9.0730   28.6745 C   0  0  0  0  0  0  0  0  0  0  0  0
  1  7  4  0
  1 22  4  0
  2 17  4  0
  2 20  4  0
  2 28  4  0
  3  6  1  0
  3 19  1  0
  4 19  1  0
  4 26  1  0
  5 17  4  0
  5 18  4  0
  6 20  1  0
  6 26  1  0
  7 24  4  0
  8 15  4  0
  8 24  4  0
  9 14  4  0
  9 21  4  0
 10 12  4  0
 10 27  4  0
 11 12  4  0
 11 23  4  0
 13 23  4  0
 13 27  4  0
 14 20  4  0
 15 22  4  0
 16 18  4  0
 16 25  2  0
 16 28  4  0
 21 28  4  0
 24 27  1  0
M  END
$$$$

 Created by Python create_sdf_string function

 28 31  0  0  0  0  0  0  0  0999 V2000
   -1.0054  -13.0622   19.1198 C   0  0  0  0  0  0  0  0  0  0  0  0
    3.1478   -8.5360   28.5161 C   0  0  0  0  0  0  0  0  0  0  0  0
    0.5798   -7.1906   27.9330 C   0  0  0  0  0  0  0  0  0  0  0  0
    0.3978   -5.1561   26.6955 C   0  0  0  0  0  0  0  0  0  0  0  0
    2.3063  -10.0533   30.0125 C   0  0  0  0  0  0  0  0  0  0  0  0
    1.8591   -6.8254   27.4685 N   0  0  0  0  0  0  0  0  0  0  0  0
   -0.2167  -12.1055   18.5568 C   0  0  0  0  0  0  0  0  0  0  0  0
   -2.0661  -10.6994   18.1916 C   0  0  0  0  0  0  0  0  0  0  0  0
    5.2703   -7.5691   27.1123 C   0  0  0  0  0  0  0  0  0  0  0  0
    1.6204   -9.9887   17.2935 C   0  0  0  0  0  0  0  0  0  0  0  0
    1.8931   -7.9265   16.2047 C   0  0  0  0  0  0  0  0  0  0  0  0
    2.4396   -9.0801   16.7132 C   0  0  0  0  0  0  0  0  0  0  0  0
   -0.2575   -8.6234   16.8582 C   0  0  0  0  0  0  0  0  0  0  0  0
    4.0614   -7.0367   27.0106 N   0  0  0  0  0  0  0  0  0  0  0  0
   -2.9133  -11.6279   18.7578 C   0  0  0  0  0  0  0  0  0  0  0  0
    4.5688  -10.1291   29.5758 C   0  0  0  0  0  0  0  0  0  0  0  0
    2.1008   -9.0410   29.1852 N   0  0  0  0  0  0  0  0  0  0  0  0
    3.4829  -10.5697   30.2091 N   0  0  0  0  0  0  0  0  0  0  0  0
   -0.3363   -6.1172   27.5628 C   0  0  0  0  0  0  0  0  0  0  0  0
    3.0331   -7.4400   27.6362 C   0  0  0  0  0  0  0  0  0  0  0  0
    5.4553   -8.5933   27.9644 C   0  0  0  0  0  0  0  0  0  0  0  0
   -2.3870  -12.8440   19.2512 C   0  0  0  0  0  0  0  0  0  0  0  0
    0.5331   -7.6964   16.2751 C   0  0  0  0  0  0  0  0  0  0  0  0
   -0.6740  -10.8737   18.0482 C   0  0  0  0  0  0  0  0  0  0  0  0
    5.6751  -10.5870   29.7637 O   0  0  0  0  0  0  0  0  0  0  0  0
    1.7612   -5.6483   26.7172 C   0  0  0  0  0  0  0  0  0  0  0  0
    0.2221   -9.8326   17.4055 C   0  0  0  0  0  0  0  0  0  0  0  0
    4.3850   -9.0730   28.6745 C   0  0  0  0  0  0  0  0  0  0  0  0
  1  7  4  0
  1 22  4  0
  2 17  4  0
  2 20  4  0
  2 28  4  0
  3  6  1  0
  3 19  1  0
  4 19  1  0
  4 26  1  0
  5 17  4  0
  5 18  4  0
  6 20  1  0
  6 26  1  0
  7 24  4  0
  8 15  4  0
  8 24  4  0
  9 14  4  0
  9 21  4  0
 10 12  4  0
 10 27  4  0
 11 12  4  0
 11 23  4  0
 13 23  4  0
 13 27  4  0
 14 20  4  0
 15 22  4  0
 16 18  4  0
 16 25  2  0
 16 28  4  0
 21 28  4  0
 24 27  1  0
M  END
$$$$

 Created by Python create_sdf_string function

 28 31  0  0  0  0  0  0  0  0999 V2000
   -1.0054  -13.0622   19.1198 C   0  0  0  0  0  0  0  0  0  0  0  0
    3.1478   -8.5360   28.5161 C   0  0  0  0  0  0  0  0  0  0  0  0
    0.5798   -7.1906   27.9330 C   0  0  0  0  0  0  0  0  0  0  0  0
    0.3978   -5.1561   26.6955 C   0  0  0  0  0  0  0  0  0  0  0  0
    2.3063  -10.0533   30.0125 C   0  0  0  0  0  0  0  0  0  0  0  0
    1.8591   -6.8254   27.4685 N   0  0  0  0  0  0  0  0  0  0  0  0
   -0.2167  -12.1055   18.5568 C   0  0  0  0  0  0  0  0  0  0  0  0
   -2.0661  -10.6994   18.1916 C   0  0  0  0  0  0  0  0  0  0  0  0
    5.2703   -7.5691   27.1123 C   0  0  0  0  0  0  0  0  0  0  0  0
    1.6204   -9.9887   17.2935 C   0  0  0  0  0  0  0  0  0  0  0  0
    1.8931   -7.9265   16.2047 C   0  0  0  0  0  0  0  0  0  0  0  0
    2.4396   -9.0801   16.7132 C   0  0  0  0  0  0  0  0  0  0  0  0
   -0.2575   -8.6234   16.8582 C   0  0  0  0  0  0  0  0  0  0  0  0
    4.0614   -7.0367   27.0106 N   0  0  0  0  0  0  0  0  0  0  0  0
   -2.9133  -11.6279   18.7578 C   0  0  0  0  0  0  0  0  0  0  0  0
    4.5688  -10.1291   29.5758 C   0  0  0  0  0  0  0  0  0  0  0  0
    2.1008   -9.0410   29.1852 N   0  0  0  0  0  0  0  0  0  0  0  0
    3.4829  -10.5697   30.2091 N   0  0  0  0  0  0  0  0  0  0  0  0
   -0.3363   -6.1172   27.5628 C   0  0  0  0  0  0  0  0  0  0  0  0
    3.0331   -7.4400   27.6362 C   0  0  0  0  0  0  0  0  0  0  0  0
    5.4553   -8.5933   27.9644 C   0  0  0  0  0  0  0  0  0  0  0  0
   -2.3870  -12.8440   19.2512 C   0  0  0  0  0  0  0  0  0  0  0  0
    0.5331   -7.6964   16.2751 C   0  0  0  0  0  0  0  0  0  0  0  0
   -0.6740  -10.8737   18.0482 C   0  0  0  0  0  0  0  0  0  0  0  0
    5.6751  -10.5870   29.7637 O   0  0  0  0  0  0  0  0  0  0  0  0
    1.7612   -5.6483   26.7172 C   0  0  0  0  0  0  0  0  0  0  0  0
    0.2221   -9.8326   17.4055 C   0  0  0  0  0  0  0  0  0  0  0  0
    4.3850   -9.0730   28.6745 C   0  0  0  0  0  0  0  0  0  0  0  0
  1  7  4  0
  1 22  4  0
  2 17  4  0
  2 20  4  0
  2 28  4  0
  3  6  1  0
  3 19  1  0
  4 19  1  0
  4 26  1  0
  5 17  4  0
  5 18  4  0
  6 20  1  0
  6 26  1  0
  7 24  4  0
  8 15  4  0
  8 24  4  0
  9 14  4  0
  9 21  4  0
 10 12  4  0
 10 27  4  0
 11 12  4  0
 11 23  4  0
 13 23  4  0
 13 27  4  0
 14 20  4  0
 15 22  4  0
 16 18  4  0
 16 25  2  0
 16 28  4  0
 21 28  4  0
 24 27  1  0
M  END
$$$$

 Created by Python create_sdf_string function

 28 31  0  0  0  0  0  0  0  0999 V2000
   -1.0054  -13.0622   19.1198 C   0  0  0  0  0  0  0  0  0  0  0  0
    3.1478   -8.5360   28.5161 C   0  0  0  0  0  0  0  0  0  0  0  0
    0.5798   -7.1906   27.9330 C   0  0  0  0  0  0  0  0  0  0  0  0
    0.3978   -5.1561   26.6955 C   0  0  0  0  0  0  0  0  0  0  0  0
    2.3063  -10.0533   30.0125 C   0  0  0  0  0  0  0  0  0  0  0  0
    1.8591   -6.8254   27.4685 N   0  0  0  0  0  0  0  0  0  0  0  0
   -0.2167  -12.1055   18.5568 C   0  0  0  0  0  0  0  0  0  0  0  0
   -2.0661  -10.6994   18.1916 C   0  0  0  0  0  0  0  0  0  0  0  0
    5.2703   -7.5691   27.1123 C   0  0  0  0  0  0  0  0  0  0  0  0
    1.6204   -9.9887   17.2935 C   0  0  0  0  0  0  0  0  0  0  0  0
    1.8931   -7.9265   16.2047 C   0  0  0  0  0  0  0  0  0  0  0  0
    2.4396   -9.0801   16.7132 C   0  0  0  0  0  0  0  0  0  0  0  0
   -0.2575   -8.6234   16.8582 C   0  0  0  0  0  0  0  0  0  0  0  0
    4.0614   -7.0367   27.0106 N   0  0  0  0  0  0  0  0  0  0  0  0
   -2.9133  -11.6279   18.7578 C   0  0  0  0  0  0  0  0  0  0  0  0
    4.5688  -10.1291   29.5758 C   0  0  0  0  0  0  0  0  0  0  0  0
    2.1008   -9.0410   29.1852 N   0  0  0  0  0  0  0  0  0  0  0  0
    3.4829  -10.5697   30.2091 N   0  0  0  0  0  0  0  0  0  0  0  0
   -0.3363   -6.1172   27.5628 C   0  0  0  0  0  0  0  0  0  0  0  0
    3.0331   -7.4400   27.6362 C   0  0  0  0  0  0  0  0  0  0  0  0
    5.4553   -8.5933   27.9644 C   0  0  0  0  0  0  0  0  0  0  0  0
   -2.3870  -12.8440   19.2512 C   0  0  0  0  0  0  0  0  0  0  0  0
    0.5331   -7.6964   16.2751 C   0  0  0  0  0  0  0  0  0  0  0  0
   -0.6740  -10.8737   18.0482 C   0  0  0  0  0  0  0  0  0  0  0  0
    5.6751  -10.5870   29.7637 O   0  0  0  0  0  0  0  0  0  0  0  0
    1.7612   -5.6483   26.7172 C   0  0  0  0  0  0  0  0  0  0  0  0
    0.2221   -9.8326   17.4055 C   0  0  0  0  0  0  0  0  0  0  0  0
    4.3850   -9.0730   28.6745 C   0  0  0  0  0  0  0  0  0  0  0  0
  1  7  4  0
  1 22  4  0
  2 17  4  0
  2 20  4  0
  2 28  4  0
  3  6  1  0
  3 19  1  0
  4 19  1  0
  4 26  1  0
  5 17  4  0
  5 18  4  0
  6 20  1  0
  6 26  1  0
  7 24  4  0
  8 15  4  0
  8 24  4  0
  9 14  4  0
  9 21  4  0
 10 12  4  0
 10 27  4  0
 11 12  4  0
 11 23  4  0
 13 23  4  0
 13 27  4  0
 14 20  4  0
 15 22  4  0
 16 18  4  0
 16 25  2  0
 16 28  4  0
 21 28  4  0
 24 27  1  0
M  END
$$$$

 Created by Python create_sdf_string function

 28 31  0  0  0  0  0  0  0  0999 V2000
   -1.0054  -13.0622   19.1198 C   0  0  0  0  0  0  0  0  0  0  0  0
    3.1478   -8.5360   28.5161 C   0  0  0  0  0  0  0  0  0  0  0  0
    0.5798   -7.1906   27.9330 C   0  0  0  0  0  0  0  0  0  0  0  0
    0.3978   -5.1561   26.6955 C   0  0  0  0  0  0  0  0  0  0  0  0
    2.3063  -10.0533   30.0125 C   0  0  0  0  0  0  0  0  0  0  0  0
    1.8591   -6.8254   27.4685 N   0  0  0  0  0  0  0  0  0  0  0  0
   -0.2167  -12.1055   18.5568 C   0  0  0  0  0  0  0  0  0  0  0  0
   -2.0661  -10.6994   18.1916 C   0  0  0  0  0  0  0  0  0  0  0  0
    5.2703   -7.5691   27.1123 C   0  0  0  0  0  0  0  0  0  0  0  0
    1.6204   -9.9887   17.2935 C   0  0  0  0  0  0  0  0  0  0  0  0
    1.8931   -7.9265   16.2047 C   0  0  0  0  0  0  0  0  0  0  0  0
    2.4396   -9.0801   16.7132 C   0  0  0  0  0  0  0  0  0  0  0  0
   -0.2575   -8.6234   16.8582 C   0  0  0  0  0  0  0  0  0  0  0  0
    4.0614   -7.0367   27.0106 N   0  0  0  0  0  0  0  0  0  0  0  0
   -2.9133  -11.6279   18.7578 C   0  0  0  0  0  0  0  0  0  0  0  0
    4.5688  -10.1291   29.5758 C   0  0  0  0  0  0  0  0  0  0  0  0
    2.1008   -9.0410   29.1852 N   0  0  0  0  0  0  0  0  0  0  0  0
    3.4829  -10.5697   30.2091 N   0  0  0  0  0  0  0  0  0  0  0  0
   -0.3363   -6.1172   27.5628 C   0  0  0  0  0  0  0  0  0  0  0  0
    3.0331   -7.4400   27.6362 C   0  0  0  0  0  0  0  0  0  0  0  0
    5.4553   -8.5933   27.9644 C   0  0  0  0  0  0  0  0  0  0  0  0
   -2.3870  -12.8440   19.2512 C   0  0  0  0  0  0  0  0  0  0  0  0
    0.5331   -7.6964   16.2751 C   0  0  0  0  0  0  0  0  0  0  0  0
   -0.6740  -10.8737   18.0482 C   0  0  0  0  0  0  0  0  0  0  0  0
    5.6751  -10.5870   29.7637 O   0  0  0  0  0  0  0  0  0  0  0  0
    1.7612   -5.6483   26.7172 C   0  0  0  0  0  0  0  0  0  0  0  0
    0.2221   -9.8326   17.4055 C   0  0  0  0  0  0  0  0  0  0  0  0
    4.3850   -9.0730   28.6745 C   0  0  0  0  0  0  0  0  0  0  0  0
  1  7  4  0
  1 22  4  0
  2 17  4  0
  2 20  4  0
  2 28  4  0
  3  6  1  0
  3 19  1  0
  4 19  1  0
  4 26  1  0
  5 17  4  0
  5 18  4  0
  6 20  1  0
  6 26  1  0
  7 24  4  0
  8 15  4  0
  8 24  4  0
  9 14  4  0
  9 21  4  0
 10 12  4  0
 10 27  4  0
 11 12  4  0
 11 23  4  0
 13 23  4  0
 13 27  4  0
 14 20  4  0
 15 22  4  0
 16 18  4  0
 16 25  2  0
 16 28  4  0
 21 28  4  0
 24 27  1  0
M  END
$$$$

 Created by Python create_sdf_string function

 28 31  0  0  0  0  0  0  0  0999 V2000
   -1.0054  -13.0622   19.1198 C   0  0  0  0  0  0  0  0  0  0  0  0
    3.1478   -8.5360   28.5161 C   0  0  0  0  0  0  0  0  0  0  0  0
    0.5798   -7.1906   27.9330 C   0  0  0  0  0  0  0  0  0  0  0  0
    0.3978   -5.1561   26.6955 C   0  0  0  0  0  0  0  0  0  0  0  0
    2.3063  -10.0533   30.0125 C   0  0  0  0  0  0  0  0  0  0  0  0
    1.8591   -6.8254   27.4685 N   0  0  0  0  0  0  0  0  0  0  0  0
   -0.2167  -12.1055   18.5568 C   0  0  0  0  0  0  0  0  0  0  0  0
   -2.0661  -10.6994   18.1916 C   0  0  0  0  0  0  0  0  0  0  0  0
    5.2703   -7.5691   27.1123 C   0  0  0  0  0  0  0  0  0  0  0  0
    1.6204   -9.9887   17.2935 C   0  0  0  0  0  0  0  0  0  0  0  0
    1.8931   -7.9265   16.2047 C   0  0  0  0  0  0  0  0  0  0  0  0
    2.4396   -9.0801   16.7132 C   0  0  0  0  0  0  0  0  0  0  0  0
   -0.2575   -8.6234   16.8582 C   0  0  0  0  0  0  0  0  0  0  0  0
    4.0614   -7.0367   27.0106 N   0  0  0  0  0  0  0  0  0  0  0  0
   -2.9133  -11.6279   18.7578 C   0  0  0  0  0  0  0  0  0  0  0  0
    4.5688  -10.1291   29.5758 C   0  0  0  0  0  0  0  0  0  0  0  0
    2.1008   -9.0410   29.1852 N   0  0  0  0  0  0  0  0  0  0  0  0
    3.4829  -10.5697   30.2091 N   0  0  0  0  0  0  0  0  0  0  0  0
   -0.3363   -6.1172   27.5628 C   0  0  0  0  0  0  0  0  0  0  0  0
    3.0331   -7.4400   27.6362 C   0  0  0  0  0  0  0  0  0  0  0  0
    5.4553   -8.5933   27.9644 C   0  0  0  0  0  0  0  0  0  0  0  0
   -2.3870  -12.8440   19.2512 C   0  0  0  0  0  0  0  0  0  0  0  0
    0.5331   -7.6964   16.2751 C   0  0  0  0  0  0  0  0  0  0  0  0
   -0.6740  -10.8737   18.0482 C   0  0  0  0  0  0  0  0  0  0  0  0
    5.6751  -10.5870   29.7637 O   0  0  0  0  0  0  0  0  0  0  0  0
    1.7612   -5.6483   26.7172 C   0  0  0  0  0  0  0  0  0  0  0  0
    0.2221   -9.8326   17.4055 C   0  0  0  0  0  0  0  0  0  0  0  0
    4.3850   -9.0730   28.6745 C   0  0  0  0  0  0  0  0  0  0  0  0
  1  7  4  0
  1 22  4  0
  2 17  4  0
  2 20  4  0
  2 28  4  0
  3  6  1  0
  3 19  1  0
  4 19  1  0
  4 26  1  0
  5 17  4  0
  5 18  4  0
  6 20  1  0
  6 26  1  0
  7 24  4  0
  8 15  4  0
  8 24  4  0
  9 14  4  0
  9 21  4  0
 10 12  4  0
 10 27  4  0
 11 12  4  0
 11 23  4  0
 13 23  4  0
 13 27  4  0
 14 20  4  0
 15 22  4  0
 16 18  4  0
 16 25  2  0
 16 28  4  0
 21 28  4  0
 24 27  1  0
M  END
$$$$

 Created by Python create_sdf_string function

 28 31  0  0  0  0  0  0  0  0999 V2000
   -1.0054  -13.0622   19.1198 C   0  0  0  0  0  0  0  0  0  0  0  0
    3.1478   -8.5360   28.5161 C   0  0  0  0  0  0  0  0  0  0  0  0
    0.5798   -7.1906   27.9330 C   0  0  0  0  0  0  0  0  0  0  0  0
    0.3978   -5.1561   26.6955 C   0  0  0  0  0  0  0  0  0  0  0  0
    2.3063  -10.0533   30.0125 C   0  0  0  0  0  0  0  0  0  0  0  0
    1.8591   -6.8254   27.4685 N   0  0  0  0  0  0  0  0  0  0  0  0
   -0.2167  -12.1055   18.5568 C   0  0  0  0  0  0  0  0  0  0  0  0
   -2.0661  -10.6994   18.1916 C   0  0  0  0  0  0  0  0  0  0  0  0
    5.2703   -7.5691   27.1123 C   0  0  0  0  0  0  0  0  0  0  0  0
    1.6204   -9.9887   17.2935 C   0  0  0  0  0  0  0  0  0  0  0  0
    1.8931   -7.9265   16.2047 C   0  0  0  0  0  0  0  0  0  0  0  0
    2.4396   -9.0801   16.7132 C   0  0  0  0  0  0  0  0  0  0  0  0
   -0.2575   -8.6234   16.8582 C   0  0  0  0  0  0  0  0  0  0  0  0
    4.0614   -7.0367   27.0106 N   0  0  0  0  0  0  0  0  0  0  0  0
   -2.9133  -11.6279   18.7578 C   0  0  0  0  0  0  0  0  0  0  0  0
    4.5688  -10.1291   29.5758 C   0  0  0  0  0  0  0  0  0  0  0  0
    2.1008   -9.0410   29.1852 N   0  0  0  0  0  0  0  0  0  0  0  0
    3.4829  -10.5697   30.2091 N   0  0  0  0  0  0  0  0  0  0  0  0
   -0.3363   -6.1172   27.5628 C   0  0  0  0  0  0  0  0  0  0  0  0
    3.0331   -7.4400   27.6362 C   0  0  0  0  0  0  0  0  0  0  0  0
    5.4553   -8.5933   27.9644 C   0  0  0  0  0  0  0  0  0  0  0  0
   -2.3870  -12.8440   19.2512 C   0  0  0  0  0  0  0  0  0  0  0  0
    0.5331   -7.6964   16.2751 C   0  0  0  0  0  0  0  0  0  0  0  0
   -0.6740  -10.8737   18.0482 C   0  0  0  0  0  0  0  0  0  0  0  0
    5.6751  -10.5870   29.7637 O   0  0  0  0  0  0  0  0  0  0  0  0
    1.7612   -5.6483   26.7172 C   0  0  0  0  0  0  0  0  0  0  0  0
    0.2221   -9.8326   17.4055 C   0  0  0  0  0  0  0  0  0  0  0  0
    4.3850   -9.0730   28.6745 C   0  0  0  0  0  0  0  0  0  0  0  0
  1  7  4  0
  1 22  4  0
  2 17  4  0
  2 20  4  0
  2 28  4  0
  3  6  1  0
  3 19  1  0
  4 19  1  0
  4 26  1  0
  5 17  4  0
  5 18  4  0
  6 20  1  0
  6 26  1  0
  7 24  4  0
  8 15  4  0
  8 24  4  0
  9 14  4  0
  9 21  4  0
 10 12  4  0
 10 27  4  0
 11 12  4  0
 11 23  4  0
 13 23  4  0
 13 27  4  0
 14 20  4  0
 15 22  4  0
 16 18  4  0
 16 25  2  0
 16 28  4  0
 21 28  4  0
 24 27  1  0
M  END
$$$$

 Created by Python create_sdf_string function

 28 31  0  0  0  0  0  0  0  0999 V2000
   -1.0054  -13.0622   19.1198 C   0  0  0  0  0  0  0  0  0  0  0  0
    3.1478   -8.5360   28.5161 C   0  0  0  0  0  0  0  0  0  0  0  0
    0.5798   -7.1906   27.9330 C   0  0  0  0  0  0  0  0  0  0  0  0
    0.3978   -5.1561   26.6955 C   0  0  0  0  0  0  0  0  0  0  0  0
    2.3063  -10.0533   30.0125 C   0  0  0  0  0  0  0  0  0  0  0  0
    1.8591   -6.8254   27.4685 N   0  0  0  0  0  0  0  0  0  0  0  0
   -0.2167  -12.1055   18.5568 C   0  0  0  0  0  0  0  0  0  0  0  0
   -2.0661  -10.6994   18.1916 C   0  0  0  0  0  0  0  0  0  0  0  0
    5.2703   -7.5691   27.1123 C   0  0  0  0  0  0  0  0  0  0  0  0
    1.6204   -9.9887   17.2935 C   0  0  0  0  0  0  0  0  0  0  0  0
    1.8931   -7.9265   16.2047 C   0  0  0  0  0  0  0  0  0  0  0  0
    2.4396   -9.0801   16.7132 C   0  0  0  0  0  0  0  0  0  0  0  0
   -0.2575   -8.6234   16.8582 C   0  0  0  0  0  0  0  0  0  0  0  0
    4.0614   -7.0367   27.0106 N   0  0  0  0  0  0  0  0  0  0  0  0
   -2.9133  -11.6279   18.7578 C   0  0  0  0  0  0  0  0  0  0  0  0
    4.5688  -10.1291   29.5758 C   0  0  0  0  0  0  0  0  0  0  0  0
    2.1008   -9.0410   29.1852 N   0  0  0  0  0  0  0  0  0  0  0  0
    3.4829  -10.5697   30.2091 N   0  0  0  0  0  0  0  0  0  0  0  0
   -0.3363   -6.1172   27.5628 C   0  0  0  0  0  0  0  0  0  0  0  0
    3.0331   -7.4400   27.6362 C   0  0  0  0  0  0  0  0  0  0  0  0
    5.4553   -8.5933   27.9644 C   0  0  0  0  0  0  0  0  0  0  0  0
   -2.3870  -12.8440   19.2512 C   0  0  0  0  0  0  0  0  0  0  0  0
    0.5331   -7.6964   16.2751 C   0  0  0  0  0  0  0  0  0  0  0  0
   -0.6740  -10.8737   18.0482 C   0  0  0  0  0  0  0  0  0  0  0  0
    5.6751  -10.5870   29.7637 O   0  0  0  0  0  0  0  0  0  0  0  0
    1.7612   -5.6483   26.7172 C   0  0  0  0  0  0  0  0  0  0  0  0
    0.2221   -9.8326   17.4055 C   0  0  0  0  0  0  0  0  0  0  0  0
    4.3850   -9.0730   28.6745 C   0  0  0  0  0  0  0  0  0  0  0  0
  1  7  4  0
  1 22  4  0
  2 17  4  0
  2 20  4  0
  2 28  4  0
  3  6  1  0
  3 19  1  0
  4 19  1  0
  4 26  1  0
  5 17  4  0
  5 18  4  0
  6 20  1  0
  6 26  1  0
  7 24  4  0
  8 15  4  0
  8 24  4  0
  9 14  4  0
  9 21  4  0
 10 12  4  0
 10 27  4  0
 11 12  4  0
 11 23  4  0
 13 23  4  0
 13 27  4  0
 14 20  4  0
 15 22  4  0
 16 18  4  0
 16 25  2  0
 16 28  4  0
 21 28  4  0
 24 27  1  0
M  END
$$$$

 Created by Python create_sdf_string function

 28 31  0  0  0  0  0  0  0  0999 V2000
   -1.0054  -13.0622   19.1198 C   0  0  0  0  0  0  0  0  0  0  0  0
    3.1478   -8.5360   28.5161 C   0  0  0  0  0  0  0  0  0  0  0  0
    0.5798   -7.1906   27.9330 C   0  0  0  0  0  0  0  0  0  0  0  0
    0.3978   -5.1561   26.6955 C   0  0  0  0  0  0  0  0  0  0  0  0
    2.3063  -10.0533   30.0125 C   0  0  0  0  0  0  0  0  0  0  0  0
    1.8591   -6.8254   27.4685 N   0  0  0  0  0  0  0  0  0  0  0  0
   -0.2167  -12.1055   18.5568 C   0  0  0  0  0  0  0  0  0  0  0  0
   -2.0661  -10.6994   18.1916 C   0  0  0  0  0  0  0  0  0  0  0  0
    5.2703   -7.5691   27.1123 C   0  0  0  0  0  0  0  0  0  0  0  0
    1.6204   -9.9887   17.2935 C   0  0  0  0  0  0  0  0  0  0  0  0
    1.8931   -7.9265   16.2047 C   0  0  0  0  0  0  0  0  0  0  0  0
    2.4396   -9.0801   16.7132 C   0  0  0  0  0  0  0  0  0  0  0  0
   -0.2575   -8.6234   16.8582 C   0  0  0  0  0  0  0  0  0  0  0  0
    4.0614   -7.0367   27.0106 N   0  0  0  0  0  0  0  0  0  0  0  0
   -2.9133  -11.6279   18.7578 C   0  0  0  0  0  0  0  0  0  0  0  0
    4.5688  -10.1291   29.5758 C   0  0  0  0  0  0  0  0  0  0  0  0
    2.1008   -9.0410   29.1852 N   0  0  0  0  0  0  0  0  0  0  0  0
    3.4829  -10.5697   30.2091 N   0  0  0  0  0  0  0  0  0  0  0  0
   -0.3363   -6.1172   27.5628 C   0  0  0  0  0  0  0  0  0  0  0  0
    3.0331   -7.4400   27.6362 C   0  0  0  0  0  0  0  0  0  0  0  0
    5.4553   -8.5933   27.9644 C   0  0  0  0  0  0  0  0  0  0  0  0
   -2.3870  -12.8440   19.2512 C   0  0  0  0  0  0  0  0  0  0  0  0
    0.5331   -7.6964   16.2751 C   0  0  0  0  0  0  0  0  0  0  0  0
   -0.6740  -10.8737   18.0482 C   0  0  0  0  0  0  0  0  0  0  0  0
    5.6751  -10.5870   29.7637 O   0  0  0  0  0  0  0  0  0  0  0  0
    1.7612   -5.6483   26.7172 C   0  0  0  0  0  0  0  0  0  0  0  0
    0.2221   -9.8326   17.4055 C   0  0  0  0  0  0  0  0  0  0  0  0
    4.3850   -9.0730   28.6745 C   0  0  0  0  0  0  0  0  0  0  0  0
  1  7  4  0
  1 22  4  0
  2 17  4  0
  2 20  4  0
  2 28  4  0
  3  6  1  0
  3 19  1  0
  4 19  1  0
  4 26  1  0
  5 17  4  0
  5 18  4  0
  6 20  1  0
  6 26  1  0
  7 24  4  0
  8 15  4  0
  8 24  4  0
  9 14  4  0
  9 21  4  0
 10 12  4  0
 10 27  4  0
 11 12  4  0
 11 23  4  0
 13 23  4  0
 13 27  4  0
 14 20  4  0
 15 22  4  0
 16 18  4  0
 16 25  2  0
 16 28  4  0
 21 28  4  0
 24 27  1  0
M  END
$$$$

 Created by Python create_sdf_string function

 28 31  0  0  0  0  0  0  0  0999 V2000
   -1.0054  -13.0622   19.1198 C   0  0  0  0  0  0  0  0  0  0  0  0
    3.1478   -8.5360   28.5161 C   0  0  0  0  0  0  0  0  0  0  0  0
    0.5798   -7.1906   27.9330 C   0  0  0  0  0  0  0  0  0  0  0  0
    0.3978   -5.1561   26.6955 C   0  0  0  0  0  0  0  0  0  0  0  0
    2.3063  -10.0533   30.0125 C   0  0  0  0  0  0  0  0  0  0  0  0
    1.8591   -6.8254   27.4685 N   0  0  0  0  0  0  0  0  0  0  0  0
   -0.2167  -12.1055   18.5568 C   0  0  0  0  0  0  0  0  0  0  0  0
   -2.0661  -10.6994   18.1916 C   0  0  0  0  0  0  0  0  0  0  0  0
    5.2703   -7.5691   27.1123 C   0  0  0  0  0  0  0  0  0  0  0  0
    1.6204   -9.9887   17.2935 C   0  0  0  0  0  0  0  0  0  0  0  0
    1.8931   -7.9265   16.2047 C   0  0  0  0  0  0  0  0  0  0  0  0
    2.4396   -9.0801   16.7132 C   0  0  0  0  0  0  0  0  0  0  0  0
   -0.2575   -8.6234   16.8582 C   0  0  0  0  0  0  0  0  0  0  0  0
    4.0614   -7.0367   27.0106 N   0  0  0  0  0  0  0  0  0  0  0  0
   -2.9133  -11.6279   18.7578 C   0  0  0  0  0  0  0  0  0  0  0  0
    4.5688  -10.1291   29.5758 C   0  0  0  0  0  0  0  0  0  0  0  0
    2.1008   -9.0410   29.1852 N   0  0  0  0  0  0  0  0  0  0  0  0
    3.4829  -10.5697   30.2091 N   0  0  0  0  0  0  0  0  0  0  0  0
   -0.3363   -6.1172   27.5628 C   0  0  0  0  0  0  0  0  0  0  0  0
    3.0331   -7.4400   27.6362 C   0  0  0  0  0  0  0  0  0  0  0  0
    5.4553   -8.5933   27.9644 C   0  0  0  0  0  0  0  0  0  0  0  0
   -2.3870  -12.8440   19.2512 C   0  0  0  0  0  0  0  0  0  0  0  0
    0.5331   -7.6964   16.2751 C   0  0  0  0  0  0  0  0  0  0  0  0
   -0.6740  -10.8737   18.0482 C   0  0  0  0  0  0  0  0  0  0  0  0
    5.6751  -10.5870   29.7637 O   0  0  0  0  0  0  0  0  0  0  0  0
    1.7612   -5.6483   26.7172 C   0  0  0  0  0  0  0  0  0  0  0  0
    0.2221   -9.8326   17.4055 C   0  0  0  0  0  0  0  0  0  0  0  0
    4.3850   -9.0730   28.6745 C   0  0  0  0  0  0  0  0  0  0  0  0
  1  7  4  0
  1 22  4  0
  2 17  4  0
  2 20  4  0
  2 28  4  0
  3  6  1  0
  3 19  1  0
  4 19  1  0
  4 26  1  0
  5 17  4  0
  5 18  4  0
  6 20  1  0
  6 26  1  0
  7 24  4  0
  8 15  4  0
  8 24  4  0
  9 14  4  0
  9 21  4  0
 10 12  4  0
 10 27  4  0
 11 12  4  0
 11 23  4  0
 13 23  4  0
 13 27  4  0
 14 20  4  0
 15 22  4  0
 16 18  4  0
 16 25  2  0
 16 28  4  0
 21 28  4  0
 24 27  1  0
M  END
$$$$

 Created by Python create_sdf_string function

 28 31  0  0  0  0  0  0  0  0999 V2000
   -1.0054  -13.0622   19.1198 C   0  0  0  0  0  0  0  0  0  0  0  0
    3.1478   -8.5360   28.5161 C   0  0  0  0  0  0  0  0  0  0  0  0
    0.5798   -7.1906   27.9330 C   0  0  0  0  0  0  0  0  0  0  0  0
    0.3978   -5.1561   26.6955 C   0  0  0  0  0  0  0  0  0  0  0  0
    2.3063  -10.0533   30.0125 C   0  0  0  0  0  0  0  0  0  0  0  0
    1.8591   -6.8254   27.4685 N   0  0  0  0  0  0  0  0  0  0  0  0
   -0.2167  -12.1055   18.5568 C   0  0  0  0  0  0  0  0  0  0  0  0
   -2.0661  -10.6994   18.1916 C   0  0  0  0  0  0  0  0  0  0  0  0
    5.2703   -7.5691   27.1123 C   0  0  0  0  0  0  0  0  0  0  0  0
    1.6204   -9.9887   17.2935 C   0  0  0  0  0  0  0  0  0  0  0  0
    1.8931   -7.9265   16.2047 C   0  0  0  0  0  0  0  0  0  0  0  0
    2.4396   -9.0801   16.7132 C   0  0  0  0  0  0  0  0  0  0  0  0
   -0.2575   -8.6234   16.8582 C   0  0  0  0  0  0  0  0  0  0  0  0
    4.0614   -7.0367   27.0106 N   0  0  0  0  0  0  0  0  0  0  0  0
   -2.9133  -11.6279   18.7578 C   0  0  0  0  0  0  0  0  0  0  0  0
    4.5688  -10.1291   29.5758 C   0  0  0  0  0  0  0  0  0  0  0  0
    2.1008   -9.0410   29.1852 N   0  0  0  0  0  0  0  0  0  0  0  0
    3.4829  -10.5697   30.2091 N   0  0  0  0  0  0  0  0  0  0  0  0
   -0.3363   -6.1172   27.5628 C   0  0  0  0  0  0  0  0  0  0  0  0
    3.0331   -7.4400   27.6362 C   0  0  0  0  0  0  0  0  0  0  0  0
    5.4553   -8.5933   27.9644 C   0  0  0  0  0  0  0  0  0  0  0  0
   -2.3870  -12.8440   19.2512 C   0  0  0  0  0  0  0  0  0  0  0  0
    0.5331   -7.6964   16.2751 C   0  0  0  0  0  0  0  0  0  0  0  0
   -0.6740  -10.8737   18.0482 C   0  0  0  0  0  0  0  0  0  0  0  0
    5.6751  -10.5870   29.7637 O   0  0  0  0  0  0  0  0  0  0  0  0
    1.7612   -5.6483   26.7172 C   0  0  0  0  0  0  0  0  0  0  0  0
    0.2221   -9.8326   17.4055 C   0  0  0  0  0  0  0  0  0  0  0  0
    4.3850   -9.0730   28.6745 C   0  0  0  0  0  0  0  0  0  0  0  0
  1  7  4  0
  1 22  4  0
  2 17  4  0
  2 20  4  0
  2 28  4  0
  3  6  1  0
  3 19  1  0
  4 19  1  0
  4 26  1  0
  5 17  4  0
  5 18  4  0
  6 20  1  0
  6 26  1  0
  7 24  4  0
  8 15  4  0
  8 24  4  0
  9 14  4  0
  9 21  4  0
 10 12  4  0
 10 27  4  0
 11 12  4  0
 11 23  4  0
 13 23  4  0
 13 27  4  0
 14 20  4  0
 15 22  4  0
 16 18  4  0
 16 25  2  0
 16 28  4  0
 21 28  4  0
 24 27  1  0
M  END
$$$$

 Created by Python create_sdf_string function

 28 31  0  0  0  0  0  0  0  0999 V2000
   -1.0054  -13.0622   19.1198 C   0  0  0  0  0  0  0  0  0  0  0  0
    3.1478   -8.5360   28.5161 C   0  0  0  0  0  0  0  0  0  0  0  0
    0.5798   -7.1906   27.9330 C   0  0  0  0  0  0  0  0  0  0  0  0
    0.3978   -5.1561   26.6955 C   0  0  0  0  0  0  0  0  0  0  0  0
    2.3063  -10.0533   30.0125 C   0  0  0  0  0  0  0  0  0  0  0  0
    1.8591   -6.8254   27.4685 N   0  0  0  0  0  0  0  0  0  0  0  0
   -0.2167  -12.1055   18.5568 C   0  0  0  0  0  0  0  0  0  0  0  0
   -2.0661  -10.6994   18.1916 C   0  0  0  0  0  0  0  0  0  0  0  0
    5.2703   -7.5691   27.1123 C   0  0  0  0  0  0  0  0  0  0  0  0
    1.6204   -9.9887   17.2935 C   0  0  0  0  0  0  0  0  0  0  0  0
    1.8931   -7.9265   16.2047 C   0  0  0  0  0  0  0  0  0  0  0  0
    2.4396   -9.0801   16.7132 C   0  0  0  0  0  0  0  0  0  0  0  0
   -0.2575   -8.6234   16.8582 C   0  0  0  0  0  0  0  0  0  0  0  0
    4.0614   -7.0367   27.0106 N   0  0  0  0  0  0  0  0  0  0  0  0
   -2.9133  -11.6279   18.7578 C   0  0  0  0  0  0  0  0  0  0  0  0
    4.5688  -10.1291   29.5758 C   0  0  0  0  0  0  0  0  0  0  0  0
    2.1008   -9.0410   29.1852 N   0  0  0  0  0  0  0  0  0  0  0  0
    3.4829  -10.5697   30.2091 N   0  0  0  0  0  0  0  0  0  0  0  0
   -0.3363   -6.1172   27.5628 C   0  0  0  0  0  0  0  0  0  0  0  0
    3.0331   -7.4400   27.6362 C   0  0  0  0  0  0  0  0  0  0  0  0
    5.4553   -8.5933   27.9644 C   0  0  0  0  0  0  0  0  0  0  0  0
   -2.3870  -12.8440   19.2512 C   0  0  0  0  0  0  0  0  0  0  0  0
    0.5331   -7.6964   16.2751 C   0  0  0  0  0  0  0  0  0  0  0  0
   -0.6740  -10.8737   18.0482 C   0  0  0  0  0  0  0  0  0  0  0  0
    5.6751  -10.5870   29.7637 O   0  0  0  0  0  0  0  0  0  0  0  0
    1.7612   -5.6483   26.7172 C   0  0  0  0  0  0  0  0  0  0  0  0
    0.2221   -9.8326   17.4055 C   0  0  0  0  0  0  0  0  0  0  0  0
    4.3850   -9.0730   28.6745 C   0  0  0  0  0  0  0  0  0  0  0  0
  1  7  4  0
  1 22  4  0
  2 17  4  0
  2 20  4  0
  2 28  4  0
  3  6  1  0
  3 19  1  0
  4 19  1  0
  4 26  1  0
  5 17  4  0
  5 18  4  0
  6 20  1  0
  6 26  1  0
  7 24  4  0
  8 15  4  0
  8 24  4  0
  9 14  4  0
  9 21  4  0
 10 12  4  0
 10 27  4  0
 11 12  4  0
 11 23  4  0
 13 23  4  0
 13 27  4  0
 14 20  4  0
 15 22  4  0
 16 18  4  0
 16 25  2  0
 16 28  4  0
 21 28  4  0
 24 27  1  0
M  END
$$$$

 Created by Python create_sdf_string function

 28 31  0  0  0  0  0  0  0  0999 V2000
   -1.0054  -13.0622   19.1198 C   0  0  0  0  0  0  0  0  0  0  0  0
    3.1478   -8.5360   28.5161 C   0  0  0  0  0  0  0  0  0  0  0  0
    0.5798   -7.1906   27.9330 C   0  0  0  0  0  0  0  0  0  0  0  0
    0.3978   -5.1561   26.6955 C   0  0  0  0  0  0  0  0  0  0  0  0
    2.3063  -10.0533   30.0125 C   0  0  0  0  0  0  0  0  0  0  0  0
    1.8591   -6.8254   27.4685 N   0  0  0  0  0  0  0  0  0  0  0  0
   -0.2167  -12.1055   18.5568 C   0  0  0  0  0  0  0  0  0  0  0  0
   -2.0661  -10.6994   18.1916 C   0  0  0  0  0  0  0  0  0  0  0  0
    5.2703   -7.5691   27.1123 C   0  0  0  0  0  0  0  0  0  0  0  0
    1.6204   -9.9887   17.2935 C   0  0  0  0  0  0  0  0  0  0  0  0
    1.8931   -7.9265   16.2047 C   0  0  0  0  0  0  0  0  0  0  0  0
    2.4396   -9.0801   16.7132 C   0  0  0  0  0  0  0  0  0  0  0  0
   -0.2575   -8.6234   16.8582 C   0  0  0  0  0  0  0  0  0  0  0  0
    4.0614   -7.0367   27.0106 N   0  0  0  0  0  0  0  0  0  0  0  0
   -2.9133  -11.6279   18.7578 C   0  0  0  0  0  0  0  0  0  0  0  0
    4.5688  -10.1291   29.5758 C   0  0  0  0  0  0  0  0  0  0  0  0
    2.1008   -9.0410   29.1852 N   0  0  0  0  0  0  0  0  0  0  0  0
    3.4829  -10.5697   30.2091 N   0  0  0  0  0  0  0  0  0  0  0  0
   -0.3363   -6.1172   27.5628 C   0  0  0  0  0  0  0  0  0  0  0  0
    3.0331   -7.4400   27.6362 C   0  0  0  0  0  0  0  0  0  0  0  0
    5.4553   -8.5933   27.9644 C   0  0  0  0  0  0  0  0  0  0  0  0
   -2.3870  -12.8440   19.2512 C   0  0  0  0  0  0  0  0  0  0  0  0
    0.5331   -7.6964   16.2751 C   0  0  0  0  0  0  0  0  0  0  0  0
   -0.6740  -10.8737   18.0482 C   0  0  0  0  0  0  0  0  0  0  0  0
    5.6751  -10.5870   29.7637 O   0  0  0  0  0  0  0  0  0  0  0  0
    1.7612   -5.6483   26.7172 C   0  0  0  0  0  0  0  0  0  0  0  0
    0.2221   -9.8326   17.4055 C   0  0  0  0  0  0  0  0  0  0  0  0
    4.3850   -9.0730   28.6745 C   0  0  0  0  0  0  0  0  0  0  0  0
  1  7  4  0
  1 22  4  0
  2 17  4  0
  2 20  4  0
  2 28  4  0
  3  6  1  0
  3 19  1  0
  4 19  1  0
  4 26  1  0
  5 17  4  0
  5 18  4  0
  6 20  1  0
  6 26  1  0
  7 24  4  0
  8 15  4  0
  8 24  4  0
  9 14  4  0
  9 21  4  0
 10 12  4  0
 10 27  4  0
 11 12  4  0
 11 23  4  0
 13 23  4  0
 13 27  4  0
 14 20  4  0
 15 22  4  0
 16 18  4  0
 16 25  2  0
 16 28  4  0
 21 28  4  0
 24 27  1  0
M  END
$$$$

 Created by Python create_sdf_string function

 28 31  0  0  0  0  0  0  0  0999 V2000
   -1.0054  -13.0622   19.1198 C   0  0  0  0  0  0  0  0  0  0  0  0
    3.1478   -8.5360   28.5161 C   0  0  0  0  0  0  0  0  0  0  0  0
    0.5798   -7.1906   27.9330 C   0  0  0  0  0  0  0  0  0  0  0  0
    0.3978   -5.1561   26.6955 C   0  0  0  0  0  0  0  0  0  0  0  0
    2.3063  -10.0533   30.0125 C   0  0  0  0  0  0  0  0  0  0  0  0
    1.8591   -6.8254   27.4685 N   0  0  0  0  0  0  0  0  0  0  0  0
   -0.2167  -12.1055   18.5568 C   0  0  0  0  0  0  0  0  0  0  0  0
   -2.0661  -10.6994   18.1916 C   0  0  0  0  0  0  0  0  0  0  0  0
    5.2703   -7.5691   27.1123 C   0  0  0  0  0  0  0  0  0  0  0  0
    1.6204   -9.9887   17.2935 C   0  0  0  0  0  0  0  0  0  0  0  0
    1.8931   -7.9265   16.2047 C   0  0  0  0  0  0  0  0  0  0  0  0
    2.4396   -9.0801   16.7132 C   0  0  0  0  0  0  0  0  0  0  0  0
   -0.2575   -8.6234   16.8582 C   0  0  0  0  0  0  0  0  0  0  0  0
    4.0614   -7.0367   27.0106 N   0  0  0  0  0  0  0  0  0  0  0  0
   -2.9133  -11.6279   18.7578 C   0  0  0  0  0  0  0  0  0  0  0  0
    4.5688  -10.1291   29.5758 C   0  0  0  0  0  0  0  0  0  0  0  0
    2.1008   -9.0410   29.1852 N   0  0  0  0  0  0  0  0  0  0  0  0
    3.4829  -10.5697   30.2091 N   0  0  0  0  0  0  0  0  0  0  0  0
   -0.3363   -6.1172   27.5628 C   0  0  0  0  0  0  0  0  0  0  0  0
    3.0331   -7.4400   27.6362 C   0  0  0  0  0  0  0  0  0  0  0  0
    5.4553   -8.5933   27.9644 C   0  0  0  0  0  0  0  0  0  0  0  0
   -2.3870  -12.8440   19.2512 C   0  0  0  0  0  0  0  0  0  0  0  0
    0.5331   -7.6964   16.2751 C   0  0  0  0  0  0  0  0  0  0  0  0
   -0.6740  -10.8737   18.0482 C   0  0  0  0  0  0  0  0  0  0  0  0
    5.6751  -10.5870   29.7637 O   0  0  0  0  0  0  0  0  0  0  0  0
    1.7612   -5.6483   26.7172 C   0  0  0  0  0  0  0  0  0  0  0  0
    0.2221   -9.8326   17.4055 C   0  0  0  0  0  0  0  0  0  0  0  0
    4.3850   -9.0730   28.6745 C   0  0  0  0  0  0  0  0  0  0  0  0
  1  7  4  0
  1 22  4  0
  2 17  4  0
  2 20  4  0
  2 28  4  0
  3  6  1  0
  3 19  1  0
  4 19  1  0
  4 26  1  0
  5 17  4  0
  5 18  4  0
  6 20  1  0
  6 26  1  0
  7 24  4  0
  8 15  4  0
  8 24  4  0
  9 14  4  0
  9 21  4  0
 10 12  4  0
 10 27  4  0
 11 12  4  0
 11 23  4  0
 13 23  4  0
 13 27  4  0
 14 20  4  0
 15 22  4  0
 16 18  4  0
 16 25  2  0
 16 28  4  0
 21 28  4  0
 24 27  1  0
M  END
$$$$

 Created by Python create_sdf_string function

 28 31  0  0  0  0  0  0  0  0999 V2000
   -1.0054  -13.0622   19.1198 C   0  0  0  0  0  0  0  0  0  0  0  0
    3.1478   -8.5360   28.5161 C   0  0  0  0  0  0  0  0  0  0  0  0
    0.5798   -7.1906   27.9330 C   0  0  0  0  0  0  0  0  0  0  0  0
    0.3978   -5.1561   26.6955 C   0  0  0  0  0  0  0  0  0  0  0  0
    2.3063  -10.0533   30.0125 C   0  0  0  0  0  0  0  0  0  0  0  0
    1.8591   -6.8254   27.4685 N   0  0  0  0  0  0  0  0  0  0  0  0
   -0.2167  -12.1055   18.5568 C   0  0  0  0  0  0  0  0  0  0  0  0
   -2.0661  -10.6994   18.1916 C   0  0  0  0  0  0  0  0  0  0  0  0
    5.2703   -7.5691   27.1123 C   0  0  0  0  0  0  0  0  0  0  0  0
    1.6204   -9.9887   17.2935 C   0  0  0  0  0  0  0  0  0  0  0  0
    1.8931   -7.9265   16.2047 C   0  0  0  0  0  0  0  0  0  0  0  0
    2.4396   -9.0801   16.7132 C   0  0  0  0  0  0  0  0  0  0  0  0
   -0.2575   -8.6234   16.8582 C   0  0  0  0  0  0  0  0  0  0  0  0
    4.0614   -7.0367   27.0106 N   0  0  0  0  0  0  0  0  0  0  0  0
   -2.9133  -11.6279   18.7578 C   0  0  0  0  0  0  0  0  0  0  0  0
    4.5688  -10.1291   29.5758 C   0  0  0  0  0  0  0  0  0  0  0  0
    2.1008   -9.0410   29.1852 N   0  0  0  0  0  0  0  0  0  0  0  0
    3.4829  -10.5697   30.2091 N   0  0  0  0  0  0  0  0  0  0  0  0
   -0.3363   -6.1172   27.5628 C   0  0  0  0  0  0  0  0  0  0  0  0
    3.0331   -7.4400   27.6362 C   0  0  0  0  0  0  0  0  0  0  0  0
    5.4553   -8.5933   27.9644 C   0  0  0  0  0  0  0  0  0  0  0  0
   -2.3870  -12.8440   19.2512 C   0  0  0  0  0  0  0  0  0  0  0  0
    0.5331   -7.6964   16.2751 C   0  0  0  0  0  0  0  0  0  0  0  0
   -0.6740  -10.8737   18.0482 C   0  0  0  0  0  0  0  0  0  0  0  0
    5.6751  -10.5870   29.7637 O   0  0  0  0  0  0  0  0  0  0  0  0
    1.7612   -5.6483   26.7172 C   0  0  0  0  0  0  0  0  0  0  0  0
    0.2221   -9.8326   17.4055 C   0  0  0  0  0  0  0  0  0  0  0  0
    4.3850   -9.0730   28.6745 C   0  0  0  0  0  0  0  0  0  0  0  0
  1  7  4  0
  1 22  4  0
  2 17  4  0
  2 20  4  0
  2 28  4  0
  3  6  1  0
  3 19  1  0
  4 19  1  0
  4 26  1  0
  5 17  4  0
  5 18  4  0
  6 20  1  0
  6 26  1  0
  7 24  4  0
  8 15  4  0
  8 24  4  0
  9 14  4  0
  9 21  4  0
 10 12  4  0
 10 27  4  0
 11 12  4  0
 11 23  4  0
 13 23  4  0
 13 27  4  0
 14 20  4  0
 15 22  4  0
 16 18  4  0
 16 25  2  0
 16 28  4  0
 21 28  4  0
 24 27  1  0
M  END
$$$$

 Created by Python create_sdf_string function

 28 31  0  0  0  0  0  0  0  0999 V2000
   -1.0054  -13.0622   19.1198 C   0  0  0  0  0  0  0  0  0  0  0  0
    3.1478   -8.5360   28.5161 C   0  0  0  0  0  0  0  0  0  0  0  0
    0.5798   -7.1906   27.9330 C   0  0  0  0  0  0  0  0  0  0  0  0
    0.3978   -5.1561   26.6955 C   0  0  0  0  0  0  0  0  0  0  0  0
    2.3063  -10.0533   30.0125 C   0  0  0  0  0  0  0  0  0  0  0  0
    1.8591   -6.8254   27.4685 N   0  0  0  0  0  0  0  0  0  0  0  0
   -0.2167  -12.1055   18.5568 C   0  0  0  0  0  0  0  0  0  0  0  0
   -2.0661  -10.6994   18.1916 C   0  0  0  0  0  0  0  0  0  0  0  0
    5.2703   -7.5691   27.1123 C   0  0  0  0  0  0  0  0  0  0  0  0
    1.6204   -9.9887   17.2935 C   0  0  0  0  0  0  0  0  0  0  0  0
    1.8931   -7.9265   16.2047 C   0  0  0  0  0  0  0  0  0  0  0  0
    2.4396   -9.0801   16.7132 C   0  0  0  0  0  0  0  0  0  0  0  0
   -0.2575   -8.6234   16.8582 C   0  0  0  0  0  0  0  0  0  0  0  0
    4.0614   -7.0367   27.0106 N   0  0  0  0  0  0  0  0  0  0  0  0
   -2.9133  -11.6279   18.7578 C   0  0  0  0  0  0  0  0  0  0  0  0
    4.5688  -10.1291   29.5758 C   0  0  0  0  0  0  0  0  0  0  0  0
    2.1008   -9.0410   29.1852 N   0  0  0  0  0  0  0  0  0  0  0  0
    3.4829  -10.5697   30.2091 N   0  0  0  0  0  0  0  0  0  0  0  0
   -0.3363   -6.1172   27.5628 C   0  0  0  0  0  0  0  0  0  0  0  0
    3.0331   -7.4400   27.6362 C   0  0  0  0  0  0  0  0  0  0  0  0
    5.4553   -8.5933   27.9644 C   0  0  0  0  0  0  0  0  0  0  0  0
   -2.3870  -12.8440   19.2512 C   0  0  0  0  0  0  0  0  0  0  0  0
    0.5331   -7.6964   16.2751 C   0  0  0  0  0  0  0  0  0  0  0  0
   -0.6740  -10.8737   18.0482 C   0  0  0  0  0  0  0  0  0  0  0  0
    5.6751  -10.5870   29.7637 O   0  0  0  0  0  0  0  0  0  0  0  0
    1.7612   -5.6483   26.7172 C   0  0  0  0  0  0  0  0  0  0  0  0
    0.2221   -9.8326   17.4055 C   0  0  0  0  0  0  0  0  0  0  0  0
    4.3850   -9.0730   28.6745 C   0  0  0  0  0  0  0  0  0  0  0  0
  1  7  4  0
  1 22  4  0
  2 17  4  0
  2 20  4  0
  2 28  4  0
  3  6  1  0
  3 19  1  0
  4 19  1  0
  4 26  1  0
  5 17  4  0
  5 18  4  0
  6 20  1  0
  6 26  1  0
  7 24  4  0
  8 15  4  0
  8 24  4  0
  9 14  4  0
  9 21  4  0
 10 12  4  0
 10 27  4  0
 11 12  4  0
 11 23  4  0
 13 23  4  0
 13 27  4  0
 14 20  4  0
 15 22  4  0
 16 18  4  0
 16 25  2  0
 16 28  4  0
 21 28  4  0
 24 27  1  0
M  END
$$$$

 Created by Python create_sdf_string function

 28 31  0  0  0  0  0  0  0  0999 V2000
   -1.0054  -13.0622   19.1198 C   0  0  0  0  0  0  0  0  0  0  0  0
    3.1478   -8.5360   28.5161 C   0  0  0  0  0  0  0  0  0  0  0  0
    0.5798   -7.1906   27.9330 C   0  0  0  0  0  0  0  0  0  0  0  0
    0.3978   -5.1561   26.6955 C   0  0  0  0  0  0  0  0  0  0  0  0
    2.3063  -10.0533   30.0125 C   0  0  0  0  0  0  0  0  0  0  0  0
    1.8591   -6.8254   27.4685 N   0  0  0  0  0  0  0  0  0  0  0  0
   -0.2167  -12.1055   18.5568 C   0  0  0  0  0  0  0  0  0  0  0  0
   -2.0661  -10.6994   18.1916 C   0  0  0  0  0  0  0  0  0  0  0  0
    5.2703   -7.5691   27.1123 C   0  0  0  0  0  0  0  0  0  0  0  0
    1.6204   -9.9887   17.2935 C   0  0  0  0  0  0  0  0  0  0  0  0
    1.8931   -7.9265   16.2047 C   0  0  0  0  0  0  0  0  0  0  0  0
    2.4396   -9.0801   16.7132 C   0  0  0  0  0  0  0  0  0  0  0  0
   -0.2575   -8.6234   16.8582 C   0  0  0  0  0  0  0  0  0  0  0  0
    4.0614   -7.0367   27.0106 N   0  0  0  0  0  0  0  0  0  0  0  0
   -2.9133  -11.6279   18.7578 C   0  0  0  0  0  0  0  0  0  0  0  0
    4.5688  -10.1291   29.5758 C   0  0  0  0  0  0  0  0  0  0  0  0
    2.1008   -9.0410   29.1852 N   0  0  0  0  0  0  0  0  0  0  0  0
    3.4829  -10.5697   30.2091 N   0  0  0  0  0  0  0  0  0  0  0  0
   -0.3363   -6.1172   27.5628 C   0  0  0  0  0  0  0  0  0  0  0  0
    3.0331   -7.4400   27.6362 C   0  0  0  0  0  0  0  0  0  0  0  0
    5.4553   -8.5933   27.9644 C   0  0  0  0  0  0  0  0  0  0  0  0
   -2.3870  -12.8440   19.2512 C   0  0  0  0  0  0  0  0  0  0  0  0
    0.5331   -7.6964   16.2751 C   0  0  0  0  0  0  0  0  0  0  0  0
   -0.6740  -10.8737   18.0482 C   0  0  0  0  0  0  0  0  0  0  0  0
    5.6751  -10.5870   29.7637 O   0  0  0  0  0  0  0  0  0  0  0  0
    1.7612   -5.6483   26.7172 C   0  0  0  0  0  0  0  0  0  0  0  0
    0.2221   -9.8326   17.4055 C   0  0  0  0  0  0  0  0  0  0  0  0
    4.3850   -9.0730   28.6745 C   0  0  0  0  0  0  0  0  0  0  0  0
  1  7  4  0
  1 22  4  0
  2 17  4  0
  2 20  4  0
  2 28  4  0
  3  6  1  0
  3 19  1  0
  4 19  1  0
  4 26  1  0
  5 17  4  0
  5 18  4  0
  6 20  1  0
  6 26  1  0
  7 24  4  0
  8 15  4  0
  8 24  4  0
  9 14  4  0
  9 21  4  0
 10 12  4  0
 10 27  4  0
 11 12  4  0
 11 23  4  0
 13 23  4  0
 13 27  4  0
 14 20  4  0
 15 22  4  0
 16 18  4  0
 16 25  2  0
 16 28  4  0
 21 28  4  0
 24 27  1  0
M  END
$$$$

 Created by Python create_sdf_string function

 28 31  0  0  0  0  0  0  0  0999 V2000
   -1.0054  -13.0622   19.1198 C   0  0  0  0  0  0  0  0  0  0  0  0
    3.1478   -8.5360   28.5161 C   0  0  0  0  0  0  0  0  0  0  0  0
    0.5798   -7.1906   27.9330 C   0  0  0  0  0  0  0  0  0  0  0  0
    0.3978   -5.1561   26.6955 C   0  0  0  0  0  0  0  0  0  0  0  0
    2.3063  -10.0533   30.0125 C   0  0  0  0  0  0  0  0  0  0  0  0
    1.8591   -6.8254   27.4685 N   0  0  0  0  0  0  0  0  0  0  0  0
   -0.2167  -12.1055   18.5568 C   0  0  0  0  0  0  0  0  0  0  0  0
   -2.0661  -10.6994   18.1916 C   0  0  0  0  0  0  0  0  0  0  0  0
    5.2703   -7.5691   27.1123 C   0  0  0  0  0  0  0  0  0  0  0  0
    1.6204   -9.9887   17.2935 C   0  0  0  0  0  0  0  0  0  0  0  0
    1.8931   -7.9265   16.2047 C   0  0  0  0  0  0  0  0  0  0  0  0
    2.4396   -9.0801   16.7132 C   0  0  0  0  0  0  0  0  0  0  0  0
   -0.2575   -8.6234   16.8582 C   0  0  0  0  0  0  0  0  0  0  0  0
    4.0614   -7.0367   27.0106 N   0  0  0  0  0  0  0  0  0  0  0  0
   -2.9133  -11.6279   18.7578 C   0  0  0  0  0  0  0  0  0  0  0  0
    4.5688  -10.1291   29.5758 C   0  0  0  0  0  0  0  0  0  0  0  0
    2.1008   -9.0410   29.1852 N   0  0  0  0  0  0  0  0  0  0  0  0
    3.4829  -10.5697   30.2091 N   0  0  0  0  0  0  0  0  0  0  0  0
   -0.3363   -6.1172   27.5628 C   0  0  0  0  0  0  0  0  0  0  0  0
    3.0331   -7.4400   27.6362 C   0  0  0  0  0  0  0  0  0  0  0  0
    5.4553   -8.5933   27.9644 C   0  0  0  0  0  0  0  0  0  0  0  0
   -2.3870  -12.8440   19.2512 C   0  0  0  0  0  0  0  0  0  0  0  0
    0.5331   -7.6964   16.2751 C   0  0  0  0  0  0  0  0  0  0  0  0
   -0.6740  -10.8737   18.0482 C   0  0  0  0  0  0  0  0  0  0  0  0
    5.6751  -10.5870   29.7637 O   0  0  0  0  0  0  0  0  0  0  0  0
    1.7612   -5.6483   26.7172 C   0  0  0  0  0  0  0  0  0  0  0  0
    0.2221   -9.8326   17.4055 C   0  0  0  0  0  0  0  0  0  0  0  0
    4.3850   -9.0730   28.6745 C   0  0  0  0  0  0  0  0  0  0  0  0
  1  7  4  0
  1 22  4  0
  2 17  4  0
  2 20  4  0
  2 28  4  0
  3  6  1  0
  3 19  1  0
  4 19  1  0
  4 26  1  0
  5 17  4  0
  5 18  4  0
  6 20  1  0
  6 26  1  0
  7 24  4  0
  8 15  4  0
  8 24  4  0
  9 14  4  0
  9 21  4  0
 10 12  4  0
 10 27  4  0
 11 12  4  0
 11 23  4  0
 13 23  4  0
 13 27  4  0
 14 20  4  0
 15 22  4  0
 16 18  4  0
 16 25  2  0
 16 28  4  0
 21 28  4  0
 24 27  1  0
M  END
$$$$

 Created by Python create_sdf_string function

 28 31  0  0  0  0  0  0  0  0999 V2000
   -1.0054  -13.0622   19.1198 C   0  0  0  0  0  0  0  0  0  0  0  0
    3.1478   -8.5360   28.5161 C   0  0  0  0  0  0  0  0  0  0  0  0
    0.5798   -7.1906   27.9330 C   0  0  0  0  0  0  0  0  0  0  0  0
    0.3978   -5.1561   26.6955 C   0  0  0  0  0  0  0  0  0  0  0  0
    2.3063  -10.0533   30.0125 C   0  0  0  0  0  0  0  0  0  0  0  0
    1.8591   -6.8254   27.4685 N   0  0  0  0  0  0  0  0  0  0  0  0
   -0.2167  -12.1055   18.5568 C   0  0  0  0  0  0  0  0  0  0  0  0
   -2.0661  -10.6994   18.1916 C   0  0  0  0  0  0  0  0  0  0  0  0
    5.2703   -7.5691   27.1123 C   0  0  0  0  0  0  0  0  0  0  0  0
    1.6204   -9.9887   17.2935 C   0  0  0  0  0  0  0  0  0  0  0  0
    1.8931   -7.9265   16.2047 C   0  0  0  0  0  0  0  0  0  0  0  0
    2.4396   -9.0801   16.7132 C   0  0  0  0  0  0  0  0  0  0  0  0
   -0.2575   -8.6234   16.8582 C   0  0  0  0  0  0  0  0  0  0  0  0
    4.0614   -7.0367   27.0106 N   0  0  0  0  0  0  0  0  0  0  0  0
   -2.9133  -11.6279   18.7578 C   0  0  0  0  0  0  0  0  0  0  0  0
    4.5688  -10.1291   29.5758 C   0  0  0  0  0  0  0  0  0  0  0  0
    2.1008   -9.0410   29.1852 N   0  0  0  0  0  0  0  0  0  0  0  0
    3.4829  -10.5697   30.2091 N   0  0  0  0  0  0  0  0  0  0  0  0
   -0.3363   -6.1172   27.5628 C   0  0  0  0  0  0  0  0  0  0  0  0
    3.0331   -7.4400   27.6362 C   0  0  0  0  0  0  0  0  0  0  0  0
    5.4553   -8.5933   27.9644 C   0  0  0  0  0  0  0  0  0  0  0  0
   -2.3870  -12.8440   19.2512 C   0  0  0  0  0  0  0  0  0  0  0  0
    0.5331   -7.6964   16.2751 C   0  0  0  0  0  0  0  0  0  0  0  0
   -0.6740  -10.8737   18.0482 C   0  0  0  0  0  0  0  0  0  0  0  0
    5.6751  -10.5870   29.7637 O   0  0  0  0  0  0  0  0  0  0  0  0
    1.7612   -5.6483   26.7172 C   0  0  0  0  0  0  0  0  0  0  0  0
    0.2221   -9.8326   17.4055 C   0  0  0  0  0  0  0  0  0  0  0  0
    4.3850   -9.0730   28.6745 C   0  0  0  0  0  0  0  0  0  0  0  0
  1  7  4  0
  1 22  4  0
  2 17  4  0
  2 20  4  0
  2 28  4  0
  3  6  1  0
  3 19  1  0
  4 19  1  0
  4 26  1  0
  5 17  4  0
  5 18  4  0
  6 20  1  0
  6 26  1  0
  7 24  4  0
  8 15  4  0
  8 24  4  0
  9 14  4  0
  9 21  4  0
 10 12  4  0
 10 27  4  0
 11 12  4  0
 11 23  4  0
 13 23  4  0
 13 27  4  0
 14 20  4  0
 15 22  4  0
 16 18  4  0
 16 25  2  0
 16 28  4  0
 21 28  4  0
 24 27  1  0
M  END
$$$$

 Created by Python create_sdf_string function

 28 31  0  0  0  0  0  0  0  0999 V2000
   -1.0054  -13.0622   19.1198 C   0  0  0  0  0  0  0  0  0  0  0  0
    3.1478   -8.5360   28.5161 C   0  0  0  0  0  0  0  0  0  0  0  0
    0.5798   -7.1906   27.9330 C   0  0  0  0  0  0  0  0  0  0  0  0
    0.3978   -5.1561   26.6955 C   0  0  0  0  0  0  0  0  0  0  0  0
    2.3063  -10.0533   30.0125 C   0  0  0  0  0  0  0  0  0  0  0  0
    1.8591   -6.8254   27.4685 N   0  0  0  0  0  0  0  0  0  0  0  0
   -0.2167  -12.1055   18.5568 C   0  0  0  0  0  0  0  0  0  0  0  0
   -2.0661  -10.6994   18.1916 C   0  0  0  0  0  0  0  0  0  0  0  0
    5.2703   -7.5691   27.1123 C   0  0  0  0  0  0  0  0  0  0  0  0
    1.6204   -9.9887   17.2935 C   0  0  0  0  0  0  0  0  0  0  0  0
    1.8931   -7.9265   16.2047 C   0  0  0  0  0  0  0  0  0  0  0  0
    2.4396   -9.0801   16.7132 C   0  0  0  0  0  0  0  0  0  0  0  0
   -0.2575   -8.6234   16.8582 C   0  0  0  0  0  0  0  0  0  0  0  0
    4.0614   -7.0367   27.0106 N   0  0  0  0  0  0  0  0  0  0  0  0
   -2.9133  -11.6279   18.7578 C   0  0  0  0  0  0  0  0  0  0  0  0
    4.5688  -10.1291   29.5758 C   0  0  0  0  0  0  0  0  0  0  0  0
    2.1008   -9.0410   29.1852 N   0  0  0  0  0  0  0  0  0  0  0  0
    3.4829  -10.5697   30.2091 N   0  0  0  0  0  0  0  0  0  0  0  0
   -0.3363   -6.1172   27.5628 C   0  0  0  0  0  0  0  0  0  0  0  0
    3.0331   -7.4400   27.6362 C   0  0  0  0  0  0  0  0  0  0  0  0
    5.4553   -8.5933   27.9644 C   0  0  0  0  0  0  0  0  0  0  0  0
   -2.3870  -12.8440   19.2512 C   0  0  0  0  0  0  0  0  0  0  0  0
    0.5331   -7.6964   16.2751 C   0  0  0  0  0  0  0  0  0  0  0  0
   -0.6740  -10.8737   18.0482 C   0  0  0  0  0  0  0  0  0  0  0  0
    5.6751  -10.5870   29.7637 O   0  0  0  0  0  0  0  0  0  0  0  0
    1.7612   -5.6483   26.7172 C   0  0  0  0  0  0  0  0  0  0  0  0
    0.2221   -9.8326   17.4055 C   0  0  0  0  0  0  0  0  0  0  0  0
    4.3850   -9.0730   28.6745 C   0  0  0  0  0  0  0  0  0  0  0  0
  1  7  4  0
  1 22  4  0
  2 17  4  0
  2 20  4  0
  2 28  4  0
  3  6  1  0
  3 19  1  0
  4 19  1  0
  4 26  1  0
  5 17  4  0
  5 18  4  0
  6 20  1  0
  6 26  1  0
  7 24  4  0
  8 15  4  0
  8 24  4  0
  9 14  4  0
  9 21  4  0
 10 12  4  0
 10 27  4  0
 11 12  4  0
 11 23  4  0
 13 23  4  0
 13 27  4  0
 14 20  4  0
 15 22  4  0
 16 18  4  0
 16 25  2  0
 16 28  4  0
 21 28  4  0
 24 27  1  0
M  END
$$$$

 Created by Python create_sdf_string function

 28 31  0  0  0  0  0  0  0  0999 V2000
   -1.0054  -13.0622   19.1198 C   0  0  0  0  0  0  0  0  0  0  0  0
    3.1478   -8.5360   28.5161 C   0  0  0  0  0  0  0  0  0  0  0  0
    0.5798   -7.1906   27.9330 C   0  0  0  0  0  0  0  0  0  0  0  0
    0.3978   -5.1561   26.6955 C   0  0  0  0  0  0  0  0  0  0  0  0
    2.3063  -10.0533   30.0125 C   0  0  0  0  0  0  0  0  0  0  0  0
    1.8591   -6.8254   27.4685 N   0  0  0  0  0  0  0  0  0  0  0  0
   -0.2167  -12.1055   18.5568 C   0  0  0  0  0  0  0  0  0  0  0  0
   -2.0661  -10.6994   18.1916 C   0  0  0  0  0  0  0  0  0  0  0  0
    5.2703   -7.5691   27.1123 C   0  0  0  0  0  0  0  0  0  0  0  0
    1.6204   -9.9887   17.2935 C   0  0  0  0  0  0  0  0  0  0  0  0
    1.8931   -7.9265   16.2047 C   0  0  0  0  0  0  0  0  0  0  0  0
    2.4396   -9.0801   16.7132 C   0  0  0  0  0  0  0  0  0  0  0  0
   -0.2575   -8.6234   16.8582 C   0  0  0  0  0  0  0  0  0  0  0  0
    4.0614   -7.0367   27.0106 N   0  0  0  0  0  0  0  0  0  0  0  0
   -2.9133  -11.6279   18.7578 C   0  0  0  0  0  0  0  0  0  0  0  0
    4.5688  -10.1291   29.5758 C   0  0  0  0  0  0  0  0  0  0  0  0
    2.1008   -9.0410   29.1852 N   0  0  0  0  0  0  0  0  0  0  0  0
    3.4829  -10.5697   30.2091 N   0  0  0  0  0  0  0  0  0  0  0  0
   -0.3363   -6.1172   27.5628 C   0  0  0  0  0  0  0  0  0  0  0  0
    3.0331   -7.4400   27.6362 C   0  0  0  0  0  0  0  0  0  0  0  0
    5.4553   -8.5933   27.9644 C   0  0  0  0  0  0  0  0  0  0  0  0
   -2.3870  -12.8440   19.2512 C   0  0  0  0  0  0  0  0  0  0  0  0
    0.5331   -7.6964   16.2751 C   0  0  0  0  0  0  0  0  0  0  0  0
   -0.6740  -10.8737   18.0482 C   0  0  0  0  0  0  0  0  0  0  0  0
    5.6751  -10.5870   29.7637 O   0  0  0  0  0  0  0  0  0  0  0  0
    1.7612   -5.6483   26.7172 C   0  0  0  0  0  0  0  0  0  0  0  0
    0.2221   -9.8326   17.4055 C   0  0  0  0  0  0  0  0  0  0  0  0
    4.3850   -9.0730   28.6745 C   0  0  0  0  0  0  0  0  0  0  0  0
  1  7  4  0
  1 22  4  0
  2 17  4  0
  2 20  4  0
  2 28  4  0
  3  6  1  0
  3 19  1  0
  4 19  1  0
  4 26  1  0
  5 17  4  0
  5 18  4  0
  6 20  1  0
  6 26  1  0
  7 24  4  0
  8 15  4  0
  8 24  4  0
  9 14  4  0
  9 21  4  0
 10 12  4  0
 10 27  4  0
 11 12  4  0
 11 23  4  0
 13 23  4  0
 13 27  4  0
 14 20  4  0
 15 22  4  0
 16 18  4  0
 16 25  2  0
 16 28  4  0
 21 28  4  0
 24 27  1  0
M  END
$$$$

 Created by Python create_sdf_string function

 28 31  0  0  0  0  0  0  0  0999 V2000
   -1.0054  -13.0622   19.1198 C   0  0  0  0  0  0  0  0  0  0  0  0
    3.1478   -8.5360   28.5161 C   0  0  0  0  0  0  0  0  0  0  0  0
    0.5798   -7.1906   27.9330 C   0  0  0  0  0  0  0  0  0  0  0  0
    0.3978   -5.1561   26.6955 C   0  0  0  0  0  0  0  0  0  0  0  0
    2.3063  -10.0533   30.0125 C   0  0  0  0  0  0  0  0  0  0  0  0
    1.8591   -6.8254   27.4685 N   0  0  0  0  0  0  0  0  0  0  0  0
   -0.2167  -12.1055   18.5568 C   0  0  0  0  0  0  0  0  0  0  0  0
   -2.0661  -10.6994   18.1916 C   0  0  0  0  0  0  0  0  0  0  0  0
    5.2703   -7.5691   27.1123 C   0  0  0  0  0  0  0  0  0  0  0  0
    1.6204   -9.9887   17.2935 C   0  0  0  0  0  0  0  0  0  0  0  0
    1.8931   -7.9265   16.2047 C   0  0  0  0  0  0  0  0  0  0  0  0
    2.4396   -9.0801   16.7132 C   0  0  0  0  0  0  0  0  0  0  0  0
   -0.2575   -8.6234   16.8582 C   0  0  0  0  0  0  0  0  0  0  0  0
    4.0614   -7.0367   27.0106 N   0  0  0  0  0  0  0  0  0  0  0  0
   -2.9133  -11.6279   18.7578 C   0  0  0  0  0  0  0  0  0  0  0  0
    4.5688  -10.1291   29.5758 C   0  0  0  0  0  0  0  0  0  0  0  0
    2.1008   -9.0410   29.1852 N   0  0  0  0  0  0  0  0  0  0  0  0
    3.4829  -10.5697   30.2091 N   0  0  0  0  0  0  0  0  0  0  0  0
   -0.3363   -6.1172   27.5628 C   0  0  0  0  0  0  0  0  0  0  0  0
    3.0331   -7.4400   27.6362 C   0  0  0  0  0  0  0  0  0  0  0  0
    5.4553   -8.5933   27.9644 C   0  0  0  0  0  0  0  0  0  0  0  0
   -2.3870  -12.8440   19.2512 C   0  0  0  0  0  0  0  0  0  0  0  0
    0.5331   -7.6964   16.2751 C   0  0  0  0  0  0  0  0  0  0  0  0
   -0.6740  -10.8737   18.0482 C   0  0  0  0  0  0  0  0  0  0  0  0
    5.6751  -10.5870   29.7637 O   0  0  0  0  0  0  0  0  0  0  0  0
    1.7612   -5.6483   26.7172 C   0  0  0  0  0  0  0  0  0  0  0  0
    0.2221   -9.8326   17.4055 C   0  0  0  0  0  0  0  0  0  0  0  0
    4.3850   -9.0730   28.6745 C   0  0  0  0  0  0  0  0  0  0  0  0
  1  7  4  0
  1 22  4  0
  2 17  4  0
  2 20  4  0
  2 28  4  0
  3  6  1  0
  3 19  1  0
  4 19  1  0
  4 26  1  0
  5 17  4  0
  5 18  4  0
  6 20  1  0
  6 26  1  0
  7 24  4  0
  8 15  4  0
  8 24  4  0
  9 14  4  0
  9 21  4  0
 10 12  4  0
 10 27  4  0
 11 12  4  0
 11 23  4  0
 13 23  4  0
 13 27  4  0
 14 20  4  0
 15 22  4  0
 16 18  4  0
 16 25  2  0
 16 28  4  0
 21 28  4  0
 24 27  1  0
M  END
$$$$

 Created by Python create_sdf_string function

 28 31  0  0  0  0  0  0  0  0999 V2000
   -1.0054  -13.0622   19.1198 C   0  0  0  0  0  0  0  0  0  0  0  0
    3.1478   -8.5360   28.5161 C   0  0  0  0  0  0  0  0  0  0  0  0
    0.5798   -7.1906   27.9330 C   0  0  0  0  0  0  0  0  0  0  0  0
    0.3978   -5.1561   26.6955 C   0  0  0  0  0  0  0  0  0  0  0  0
    2.3063  -10.0533   30.0125 C   0  0  0  0  0  0  0  0  0  0  0  0
    1.8591   -6.8254   27.4685 N   0  0  0  0  0  0  0  0  0  0  0  0
   -0.2167  -12.1055   18.5568 C   0  0  0  0  0  0  0  0  0  0  0  0
   -2.0661  -10.6994   18.1916 C   0  0  0  0  0  0  0  0  0  0  0  0
    5.2703   -7.5691   27.1123 C   0  0  0  0  0  0  0  0  0  0  0  0
    1.6204   -9.9887   17.2935 C   0  0  0  0  0  0  0  0  0  0  0  0
    1.8931   -7.9265   16.2047 C   0  0  0  0  0  0  0  0  0  0  0  0
    2.4396   -9.0801   16.7132 C   0  0  0  0  0  0  0  0  0  0  0  0
   -0.2575   -8.6234   16.8582 C   0  0  0  0  0  0  0  0  0  0  0  0
    4.0614   -7.0367   27.0106 N   0  0  0  0  0  0  0  0  0  0  0  0
   -2.9133  -11.6279   18.7578 C   0  0  0  0  0  0  0  0  0  0  0  0
    4.5688  -10.1291   29.5758 C   0  0  0  0  0  0  0  0  0  0  0  0
    2.1008   -9.0410   29.1852 N   0  0  0  0  0  0  0  0  0  0  0  0
    3.4829  -10.5697   30.2091 N   0  0  0  0  0  0  0  0  0  0  0  0
   -0.3363   -6.1172   27.5628 C   0  0  0  0  0  0  0  0  0  0  0  0
    3.0331   -7.4400   27.6362 C   0  0  0  0  0  0  0  0  0  0  0  0
    5.4553   -8.5933   27.9644 C   0  0  0  0  0  0  0  0  0  0  0  0
   -2.3870  -12.8440   19.2512 C   0  0  0  0  0  0  0  0  0  0  0  0
    0.5331   -7.6964   16.2751 C   0  0  0  0  0  0  0  0  0  0  0  0
   -0.6740  -10.8737   18.0482 C   0  0  0  0  0  0  0  0  0  0  0  0
    5.6751  -10.5870   29.7637 O   0  0  0  0  0  0  0  0  0  0  0  0
    1.7612   -5.6483   26.7172 C   0  0  0  0  0  0  0  0  0  0  0  0
    0.2221   -9.8326   17.4055 C   0  0  0  0  0  0  0  0  0  0  0  0
    4.3850   -9.0730   28.6745 C   0  0  0  0  0  0  0  0  0  0  0  0
  1  7  4  0
  1 22  4  0
  2 17  4  0
  2 20  4  0
  2 28  4  0
  3  6  1  0
  3 19  1  0
  4 19  1  0
  4 26  1  0
  5 17  4  0
  5 18  4  0
  6 20  1  0
  6 26  1  0
  7 24  4  0
  8 15  4  0
  8 24  4  0
  9 14  4  0
  9 21  4  0
 10 12  4  0
 10 27  4  0
 11 12  4  0
 11 23  4  0
 13 23  4  0
 13 27  4  0
 14 20  4  0
 15 22  4  0
 16 18  4  0
 16 25  2  0
 16 28  4  0
 21 28  4  0
 24 27  1  0
M  END
$$$$

 Created by Python create_sdf_string function

 28 31  0  0  0  0  0  0  0  0999 V2000
   -1.0054  -13.0622   19.1198 C   0  0  0  0  0  0  0  0  0  0  0  0
    3.1478   -8.5360   28.5161 C   0  0  0  0  0  0  0  0  0  0  0  0
    0.5798   -7.1906   27.9330 C   0  0  0  0  0  0  0  0  0  0  0  0
    0.3978   -5.1561   26.6955 C   0  0  0  0  0  0  0  0  0  0  0  0
    2.3063  -10.0533   30.0125 C   0  0  0  0  0  0  0  0  0  0  0  0
    1.8591   -6.8254   27.4685 N   0  0  0  0  0  0  0  0  0  0  0  0
   -0.2167  -12.1055   18.5568 C   0  0  0  0  0  0  0  0  0  0  0  0
   -2.0661  -10.6994   18.1916 C   0  0  0  0  0  0  0  0  0  0  0  0
    5.2703   -7.5691   27.1123 C   0  0  0  0  0  0  0  0  0  0  0  0
    1.6204   -9.9887   17.2935 C   0  0  0  0  0  0  0  0  0  0  0  0
    1.8931   -7.9265   16.2047 C   0  0  0  0  0  0  0  0  0  0  0  0
    2.4396   -9.0801   16.7132 C   0  0  0  0  0  0  0  0  0  0  0  0
   -0.2575   -8.6234   16.8582 C   0  0  0  0  0  0  0  0  0  0  0  0
    4.0614   -7.0367   27.0106 N   0  0  0  0  0  0  0  0  0  0  0  0
   -2.9133  -11.6279   18.7578 C   0  0  0  0  0  0  0  0  0  0  0  0
    4.5688  -10.1291   29.5758 C   0  0  0  0  0  0  0  0  0  0  0  0
    2.1008   -9.0410   29.1852 N   0  0  0  0  0  0  0  0  0  0  0  0
    3.4829  -10.5697   30.2091 N   0  0  0  0  0  0  0  0  0  0  0  0
   -0.3363   -6.1172   27.5628 C   0  0  0  0  0  0  0  0  0  0  0  0
    3.0331   -7.4400   27.6362 C   0  0  0  0  0  0  0  0  0  0  0  0
    5.4553   -8.5933   27.9644 C   0  0  0  0  0  0  0  0  0  0  0  0
   -2.3870  -12.8440   19.2512 C   0  0  0  0  0  0  0  0  0  0  0  0
    0.5331   -7.6964   16.2751 C   0  0  0  0  0  0  0  0  0  0  0  0
   -0.6740  -10.8737   18.0482 C   0  0  0  0  0  0  0  0  0  0  0  0
    5.6751  -10.5870   29.7637 O   0  0  0  0  0  0  0  0  0  0  0  0
    1.7612   -5.6483   26.7172 C   0  0  0  0  0  0  0  0  0  0  0  0
    0.2221   -9.8326   17.4055 C   0  0  0  0  0  0  0  0  0  0  0  0
    4.3850   -9.0730   28.6745 C   0  0  0  0  0  0  0  0  0  0  0  0
  1  7  4  0
  1 22  4  0
  2 17  4  0
  2 20  4  0
  2 28  4  0
  3  6  1  0
  3 19  1  0
  4 19  1  0
  4 26  1  0
  5 17  4  0
  5 18  4  0
  6 20  1  0
  6 26  1  0
  7 24  4  0
  8 15  4  0
  8 24  4  0
  9 14  4  0
  9 21  4  0
 10 12  4  0
 10 27  4  0
 11 12  4  0
 11 23  4  0
 13 23  4  0
 13 27  4  0
 14 20  4  0
 15 22  4  0
 16 18  4  0
 16 25  2  0
 16 28  4  0
 21 28  4  0
 24 27  1  0
M  END
$$$$

 Created by Python create_sdf_string function

 28 31  0  0  0  0  0  0  0  0999 V2000
   -1.0054  -13.0622   19.1198 C   0  0  0  0  0  0  0  0  0  0  0  0
    3.1478   -8.5360   28.5161 C   0  0  0  0  0  0  0  0  0  0  0  0
    0.5798   -7.1906   27.9330 C   0  0  0  0  0  0  0  0  0  0  0  0
    0.3978   -5.1561   26.6955 C   0  0  0  0  0  0  0  0  0  0  0  0
    2.3063  -10.0533   30.0125 C   0  0  0  0  0  0  0  0  0  0  0  0
    1.8591   -6.8254   27.4685 N   0  0  0  0  0  0  0  0  0  0  0  0
   -0.2167  -12.1055   18.5568 C   0  0  0  0  0  0  0  0  0  0  0  0
   -2.0661  -10.6994   18.1916 C   0  0  0  0  0  0  0  0  0  0  0  0
    5.2703   -7.5691   27.1123 C   0  0  0  0  0  0  0  0  0  0  0  0
    1.6204   -9.9887   17.2935 C   0  0  0  0  0  0  0  0  0  0  0  0
    1.8931   -7.9265   16.2047 C   0  0  0  0  0  0  0  0  0  0  0  0
    2.4396   -9.0801   16.7132 C   0  0  0  0  0  0  0  0  0  0  0  0
   -0.2575   -8.6234   16.8582 C   0  0  0  0  0  0  0  0  0  0  0  0
    4.0614   -7.0367   27.0106 N   0  0  0  0  0  0  0  0  0  0  0  0
   -2.9133  -11.6279   18.7578 C   0  0  0  0  0  0  0  0  0  0  0  0
    4.5688  -10.1291   29.5758 C   0  0  0  0  0  0  0  0  0  0  0  0
    2.1008   -9.0410   29.1852 N   0  0  0  0  0  0  0  0  0  0  0  0
    3.4829  -10.5697   30.2091 N   0  0  0  0  0  0  0  0  0  0  0  0
   -0.3363   -6.1172   27.5628 C   0  0  0  0  0  0  0  0  0  0  0  0
    3.0331   -7.4400   27.6362 C   0  0  0  0  0  0  0  0  0  0  0  0
    5.4553   -8.5933   27.9644 C   0  0  0  0  0  0  0  0  0  0  0  0
   -2.3870  -12.8440   19.2512 C   0  0  0  0  0  0  0  0  0  0  0  0
    0.5331   -7.6964   16.2751 C   0  0  0  0  0  0  0  0  0  0  0  0
   -0.6740  -10.8737   18.0482 C   0  0  0  0  0  0  0  0  0  0  0  0
    5.6751  -10.5870   29.7637 O   0  0  0  0  0  0  0  0  0  0  0  0
    1.7612   -5.6483   26.7172 C   0  0  0  0  0  0  0  0  0  0  0  0
    0.2221   -9.8326   17.4055 C   0  0  0  0  0  0  0  0  0  0  0  0
    4.3850   -9.0730   28.6745 C   0  0  0  0  0  0  0  0  0  0  0  0
  1  7  4  0
  1 22  4  0
  2 17  4  0
  2 20  4  0
  2 28  4  0
  3  6  1  0
  3 19  1  0
  4 19  1  0
  4 26  1  0
  5 17  4  0
  5 18  4  0
  6 20  1  0
  6 26  1  0
  7 24  4  0
  8 15  4  0
  8 24  4  0
  9 14  4  0
  9 21  4  0
 10 12  4  0
 10 27  4  0
 11 12  4  0
 11 23  4  0
 13 23  4  0
 13 27  4  0
 14 20  4  0
 15 22  4  0
 16 18  4  0
 16 25  2  0
 16 28  4  0
 21 28  4  0
 24 27  1  0
M  END
$$$$

 Created by Python create_sdf_string function

 28 31  0  0  0  0  0  0  0  0999 V2000
   -1.0054  -13.0622   19.1198 C   0  0  0  0  0  0  0  0  0  0  0  0
    3.1478   -8.5360   28.5161 C   0  0  0  0  0  0  0  0  0  0  0  0
    0.5798   -7.1906   27.9330 C   0  0  0  0  0  0  0  0  0  0  0  0
    0.3978   -5.1561   26.6955 C   0  0  0  0  0  0  0  0  0  0  0  0
    2.3063  -10.0533   30.0125 C   0  0  0  0  0  0  0  0  0  0  0  0
    1.8591   -6.8254   27.4685 N   0  0  0  0  0  0  0  0  0  0  0  0
   -0.2167  -12.1055   18.5568 C   0  0  0  0  0  0  0  0  0  0  0  0
   -2.0661  -10.6994   18.1916 C   0  0  0  0  0  0  0  0  0  0  0  0
    5.2703   -7.5691   27.1123 C   0  0  0  0  0  0  0  0  0  0  0  0
    1.6204   -9.9887   17.2935 C   0  0  0  0  0  0  0  0  0  0  0  0
    1.8931   -7.9265   16.2047 C   0  0  0  0  0  0  0  0  0  0  0  0
    2.4396   -9.0801   16.7132 C   0  0  0  0  0  0  0  0  0  0  0  0
   -0.2575   -8.6234   16.8582 C   0  0  0  0  0  0  0  0  0  0  0  0
    4.0614   -7.0367   27.0106 N   0  0  0  0  0  0  0  0  0  0  0  0
   -2.9133  -11.6279   18.7578 C   0  0  0  0  0  0  0  0  0  0  0  0
    4.5688  -10.1291   29.5758 C   0  0  0  0  0  0  0  0  0  0  0  0
    2.1008   -9.0410   29.1852 N   0  0  0  0  0  0  0  0  0  0  0  0
    3.4829  -10.5697   30.2091 N   0  0  0  0  0  0  0  0  0  0  0  0
   -0.3363   -6.1172   27.5628 C   0  0  0  0  0  0  0  0  0  0  0  0
    3.0331   -7.4400   27.6362 C   0  0  0  0  0  0  0  0  0  0  0  0
    5.4553   -8.5933   27.9644 C   0  0  0  0  0  0  0  0  0  0  0  0
   -2.3870  -12.8440   19.2512 C   0  0  0  0  0  0  0  0  0  0  0  0
    0.5331   -7.6964   16.2751 C   0  0  0  0  0  0  0  0  0  0  0  0
   -0.6740  -10.8737   18.0482 C   0  0  0  0  0  0  0  0  0  0  0  0
    5.6751  -10.5870   29.7637 O   0  0  0  0  0  0  0  0  0  0  0  0
    1.7612   -5.6483   26.7172 C   0  0  0  0  0  0  0  0  0  0  0  0
    0.2221   -9.8326   17.4055 C   0  0  0  0  0  0  0  0  0  0  0  0
    4.3850   -9.0730   28.6745 C   0  0  0  0  0  0  0  0  0  0  0  0
  1  7  4  0
  1 22  4  0
  2 17  4  0
  2 20  4  0
  2 28  4  0
  3  6  1  0
  3 19  1  0
  4 19  1  0
  4 26  1  0
  5 17  4  0
  5 18  4  0
  6 20  1  0
  6 26  1  0
  7 24  4  0
  8 15  4  0
  8 24  4  0
  9 14  4  0
  9 21  4  0
 10 12  4  0
 10 27  4  0
 11 12  4  0
 11 23  4  0
 13 23  4  0
 13 27  4  0
 14 20  4  0
 15 22  4  0
 16 18  4  0
 16 25  2  0
 16 28  4  0
 21 28  4  0
 24 27  1  0
M  END
$$$$

 Created by Python create_sdf_string function

 28 31  0  0  0  0  0  0  0  0999 V2000
   -1.0054  -13.0622   19.1198 C   0  0  0  0  0  0  0  0  0  0  0  0
    3.1478   -8.5360   28.5161 C   0  0  0  0  0  0  0  0  0  0  0  0
    0.5798   -7.1906   27.9330 C   0  0  0  0  0  0  0  0  0  0  0  0
    0.3978   -5.1561   26.6955 C   0  0  0  0  0  0  0  0  0  0  0  0
    2.3063  -10.0533   30.0125 C   0  0  0  0  0  0  0  0  0  0  0  0
    1.8591   -6.8254   27.4685 N   0  0  0  0  0  0  0  0  0  0  0  0
   -0.2167  -12.1055   18.5568 C   0  0  0  0  0  0  0  0  0  0  0  0
   -2.0661  -10.6994   18.1916 C   0  0  0  0  0  0  0  0  0  0  0  0
    5.2703   -7.5691   27.1123 C   0  0  0  0  0  0  0  0  0  0  0  0
    1.6204   -9.9887   17.2935 C   0  0  0  0  0  0  0  0  0  0  0  0
    1.8931   -7.9265   16.2047 C   0  0  0  0  0  0  0  0  0  0  0  0
    2.4396   -9.0801   16.7132 C   0  0  0  0  0  0  0  0  0  0  0  0
   -0.2575   -8.6234   16.8582 C   0  0  0  0  0  0  0  0  0  0  0  0
    4.0614   -7.0367   27.0106 N   0  0  0  0  0  0  0  0  0  0  0  0
   -2.9133  -11.6279   18.7578 C   0  0  0  0  0  0  0  0  0  0  0  0
    4.5688  -10.1291   29.5758 C   0  0  0  0  0  0  0  0  0  0  0  0
    2.1008   -9.0410   29.1852 N   0  0  0  0  0  0  0  0  0  0  0  0
    3.4829  -10.5697   30.2091 N   0  0  0  0  0  0  0  0  0  0  0  0
   -0.3363   -6.1172   27.5628 C   0  0  0  0  0  0  0  0  0  0  0  0
    3.0331   -7.4400   27.6362 C   0  0  0  0  0  0  0  0  0  0  0  0
    5.4553   -8.5933   27.9644 C   0  0  0  0  0  0  0  0  0  0  0  0
   -2.3870  -12.8440   19.2512 C   0  0  0  0  0  0  0  0  0  0  0  0
    0.5331   -7.6964   16.2751 C   0  0  0  0  0  0  0  0  0  0  0  0
   -0.6740  -10.8737   18.0482 C   0  0  0  0  0  0  0  0  0  0  0  0
    5.6751  -10.5870   29.7637 O   0  0  0  0  0  0  0  0  0  0  0  0
    1.7612   -5.6483   26.7172 C   0  0  0  0  0  0  0  0  0  0  0  0
    0.2221   -9.8326   17.4055 C   0  0  0  0  0  0  0  0  0  0  0  0
    4.3850   -9.0730   28.6745 C   0  0  0  0  0  0  0  0  0  0  0  0
  1  7  4  0
  1 22  4  0
  2 17  4  0
  2 20  4  0
  2 28  4  0
  3  6  1  0
  3 19  1  0
  4 19  1  0
  4 26  1  0
  5 17  4  0
  5 18  4  0
  6 20  1  0
  6 26  1  0
  7 24  4  0
  8 15  4  0
  8 24  4  0
  9 14  4  0
  9 21  4  0
 10 12  4  0
 10 27  4  0
 11 12  4  0
 11 23  4  0
 13 23  4  0
 13 27  4  0
 14 20  4  0
 15 22  4  0
 16 18  4  0
 16 25  2  0
 16 28  4  0
 21 28  4  0
 24 27  1  0
M  END
$$$$

 Created by Python create_sdf_string function

 28 31  0  0  0  0  0  0  0  0999 V2000
   -1.0054  -13.0622   19.1198 C   0  0  0  0  0  0  0  0  0  0  0  0
    3.1478   -8.5360   28.5161 C   0  0  0  0  0  0  0  0  0  0  0  0
    0.5798   -7.1906   27.9330 C   0  0  0  0  0  0  0  0  0  0  0  0
    0.3978   -5.1561   26.6955 C   0  0  0  0  0  0  0  0  0  0  0  0
    2.3063  -10.0533   30.0125 C   0  0  0  0  0  0  0  0  0  0  0  0
    1.8591   -6.8254   27.4685 N   0  0  0  0  0  0  0  0  0  0  0  0
   -0.2167  -12.1055   18.5568 C   0  0  0  0  0  0  0  0  0  0  0  0
   -2.0661  -10.6994   18.1916 C   0  0  0  0  0  0  0  0  0  0  0  0
    5.2703   -7.5691   27.1123 C   0  0  0  0  0  0  0  0  0  0  0  0
    1.6204   -9.9887   17.2935 C   0  0  0  0  0  0  0  0  0  0  0  0
    1.8931   -7.9265   16.2047 C   0  0  0  0  0  0  0  0  0  0  0  0
    2.4396   -9.0801   16.7132 C   0  0  0  0  0  0  0  0  0  0  0  0
   -0.2575   -8.6234   16.8582 C   0  0  0  0  0  0  0  0  0  0  0  0
    4.0614   -7.0367   27.0106 N   0  0  0  0  0  0  0  0  0  0  0  0
   -2.9133  -11.6279   18.7578 C   0  0  0  0  0  0  0  0  0  0  0  0
    4.5688  -10.1291   29.5758 C   0  0  0  0  0  0  0  0  0  0  0  0
    2.1008   -9.0410   29.1852 N   0  0  0  0  0  0  0  0  0  0  0  0
    3.4829  -10.5697   30.2091 N   0  0  0  0  0  0  0  0  0  0  0  0
   -0.3363   -6.1172   27.5628 C   0  0  0  0  0  0  0  0  0  0  0  0
    3.0331   -7.4400   27.6362 C   0  0  0  0  0  0  0  0  0  0  0  0
    5.4553   -8.5933   27.9644 C   0  0  0  0  0  0  0  0  0  0  0  0
   -2.3870  -12.8440   19.2512 C   0  0  0  0  0  0  0  0  0  0  0  0
    0.5331   -7.6964   16.2751 C   0  0  0  0  0  0  0  0  0  0  0  0
   -0.6740  -10.8737   18.0482 C   0  0  0  0  0  0  0  0  0  0  0  0
    5.6751  -10.5870   29.7637 O   0  0  0  0  0  0  0  0  0  0  0  0
    1.7612   -5.6483   26.7172 C   0  0  0  0  0  0  0  0  0  0  0  0
    0.2221   -9.8326   17.4055 C   0  0  0  0  0  0  0  0  0  0  0  0
    4.3850   -9.0730   28.6745 C   0  0  0  0  0  0  0  0  0  0  0  0
  1  7  4  0
  1 22  4  0
  2 17  4  0
  2 20  4  0
  2 28  4  0
  3  6  1  0
  3 19  1  0
  4 19  1  0
  4 26  1  0
  5 17  4  0
  5 18  4  0
  6 20  1  0
  6 26  1  0
  7 24  4  0
  8 15  4  0
  8 24  4  0
  9 14  4  0
  9 21  4  0
 10 12  4  0
 10 27  4  0
 11 12  4  0
 11 23  4  0
 13 23  4  0
 13 27  4  0
 14 20  4  0
 15 22  4  0
 16 18  4  0
 16 25  2  0
 16 28  4  0
 21 28  4  0
 24 27  1  0
M  END
$$$$

 Created by Python create_sdf_string function

 28 31  0  0  0  0  0  0  0  0999 V2000
   -1.0054  -13.0622   19.1198 C   0  0  0  0  0  0  0  0  0  0  0  0
    3.1478   -8.5360   28.5161 C   0  0  0  0  0  0  0  0  0  0  0  0
    0.5798   -7.1906   27.9330 C   0  0  0  0  0  0  0  0  0  0  0  0
    0.3978   -5.1561   26.6955 C   0  0  0  0  0  0  0  0  0  0  0  0
    2.3063  -10.0533   30.0125 C   0  0  0  0  0  0  0  0  0  0  0  0
    1.8591   -6.8254   27.4685 N   0  0  0  0  0  0  0  0  0  0  0  0
   -0.2167  -12.1055   18.5568 C   0  0  0  0  0  0  0  0  0  0  0  0
   -2.0661  -10.6994   18.1916 C   0  0  0  0  0  0  0  0  0  0  0  0
    5.2703   -7.5691   27.1123 C   0  0  0  0  0  0  0  0  0  0  0  0
    1.6204   -9.9887   17.2935 C   0  0  0  0  0  0  0  0  0  0  0  0
    1.8931   -7.9265   16.2047 C   0  0  0  0  0  0  0  0  0  0  0  0
    2.4396   -9.0801   16.7132 C   0  0  0  0  0  0  0  0  0  0  0  0
   -0.2575   -8.6234   16.8582 C   0  0  0  0  0  0  0  0  0  0  0  0
    4.0614   -7.0367   27.0106 N   0  0  0  0  0  0  0  0  0  0  0  0
   -2.9133  -11.6279   18.7578 C   0  0  0  0  0  0  0  0  0  0  0  0
    4.5688  -10.1291   29.5758 C   0  0  0  0  0  0  0  0  0  0  0  0
    2.1008   -9.0410   29.1852 N   0  0  0  0  0  0  0  0  0  0  0  0
    3.4829  -10.5697   30.2091 N   0  0  0  0  0  0  0  0  0  0  0  0
   -0.3363   -6.1172   27.5628 C   0  0  0  0  0  0  0  0  0  0  0  0
    3.0331   -7.4400   27.6362 C   0  0  0  0  0  0  0  0  0  0  0  0
    5.4553   -8.5933   27.9644 C   0  0  0  0  0  0  0  0  0  0  0  0
   -2.3870  -12.8440   19.2512 C   0  0  0  0  0  0  0  0  0  0  0  0
    0.5331   -7.6964   16.2751 C   0  0  0  0  0  0  0  0  0  0  0  0
   -0.6740  -10.8737   18.0482 C   0  0  0  0  0  0  0  0  0  0  0  0
    5.6751  -10.5870   29.7637 O   0  0  0  0  0  0  0  0  0  0  0  0
    1.7612   -5.6483   26.7172 C   0  0  0  0  0  0  0  0  0  0  0  0
    0.2221   -9.8326   17.4055 C   0  0  0  0  0  0  0  0  0  0  0  0
    4.3850   -9.0730   28.6745 C   0  0  0  0  0  0  0  0  0  0  0  0
  1  7  4  0
  1 22  4  0
  2 17  4  0
  2 20  4  0
  2 28  4  0
  3  6  1  0
  3 19  1  0
  4 19  1  0
  4 26  1  0
  5 17  4  0
  5 18  4  0
  6 20  1  0
  6 26  1  0
  7 24  4  0
  8 15  4  0
  8 24  4  0
  9 14  4  0
  9 21  4  0
 10 12  4  0
 10 27  4  0
 11 12  4  0
 11 23  4  0
 13 23  4  0
 13 27  4  0
 14 20  4  0
 15 22  4  0
 16 18  4  0
 16 25  2  0
 16 28  4  0
 21 28  4  0
 24 27  1  0
M  END
$$$$

 Created by Python create_sdf_string function

 28 31  0  0  0  0  0  0  0  0999 V2000
   -1.0054  -13.0622   19.1198 C   0  0  0  0  0  0  0  0  0  0  0  0
    3.1478   -8.5360   28.5161 C   0  0  0  0  0  0  0  0  0  0  0  0
    0.5798   -7.1906   27.9330 C   0  0  0  0  0  0  0  0  0  0  0  0
    0.3978   -5.1561   26.6955 C   0  0  0  0  0  0  0  0  0  0  0  0
    2.3063  -10.0533   30.0125 C   0  0  0  0  0  0  0  0  0  0  0  0
    1.8591   -6.8254   27.4685 N   0  0  0  0  0  0  0  0  0  0  0  0
   -0.2167  -12.1055   18.5568 C   0  0  0  0  0  0  0  0  0  0  0  0
   -2.0661  -10.6994   18.1916 C   0  0  0  0  0  0  0  0  0  0  0  0
    5.2703   -7.5691   27.1123 C   0  0  0  0  0  0  0  0  0  0  0  0
    1.6204   -9.9887   17.2935 C   0  0  0  0  0  0  0  0  0  0  0  0
    1.8931   -7.9265   16.2047 C   0  0  0  0  0  0  0  0  0  0  0  0
    2.4396   -9.0801   16.7132 C   0  0  0  0  0  0  0  0  0  0  0  0
   -0.2575   -8.6234   16.8582 C   0  0  0  0  0  0  0  0  0  0  0  0
    4.0614   -7.0367   27.0106 N   0  0  0  0  0  0  0  0  0  0  0  0
   -2.9133  -11.6279   18.7578 C   0  0  0  0  0  0  0  0  0  0  0  0
    4.5688  -10.1291   29.5758 C   0  0  0  0  0  0  0  0  0  0  0  0
    2.1008   -9.0410   29.1852 N   0  0  0  0  0  0  0  0  0  0  0  0
    3.4829  -10.5697   30.2091 N   0  0  0  0  0  0  0  0  0  0  0  0
   -0.3363   -6.1172   27.5628 C   0  0  0  0  0  0  0  0  0  0  0  0
    3.0331   -7.4400   27.6362 C   0  0  0  0  0  0  0  0  0  0  0  0
    5.4553   -8.5933   27.9644 C   0  0  0  0  0  0  0  0  0  0  0  0
   -2.3870  -12.8440   19.2512 C   0  0  0  0  0  0  0  0  0  0  0  0
    0.5331   -7.6964   16.2751 C   0  0  0  0  0  0  0  0  0  0  0  0
   -0.6740  -10.8737   18.0482 C   0  0  0  0  0  0  0  0  0  0  0  0
    5.6751  -10.5870   29.7637 O   0  0  0  0  0  0  0  0  0  0  0  0
    1.7612   -5.6483   26.7172 C   0  0  0  0  0  0  0  0  0  0  0  0
    0.2221   -9.8326   17.4055 C   0  0  0  0  0  0  0  0  0  0  0  0
    4.3850   -9.0730   28.6745 C   0  0  0  0  0  0  0  0  0  0  0  0
  1  7  4  0
  1 22  4  0
  2 17  4  0
  2 20  4  0
  2 28  4  0
  3  6  1  0
  3 19  1  0
  4 19  1  0
  4 26  1  0
  5 17  4  0
  5 18  4  0
  6 20  1  0
  6 26  1  0
  7 24  4  0
  8 15  4  0
  8 24  4  0
  9 14  4  0
  9 21  4  0
 10 12  4  0
 10 27  4  0
 11 12  4  0
 11 23  4  0
 13 23  4  0
 13 27  4  0
 14 20  4  0
 15 22  4  0
 16 18  4  0
 16 25  2  0
 16 28  4  0
 21 28  4  0
 24 27  1  0
M  END
$$$$

 Created by Python create_sdf_string function

 28 31  0  0  0  0  0  0  0  0999 V2000
   -1.0054  -13.0622   19.1198 C   0  0  0  0  0  0  0  0  0  0  0  0
    3.1478   -8.5360   28.5161 C   0  0  0  0  0  0  0  0  0  0  0  0
    0.5798   -7.1906   27.9330 C   0  0  0  0  0  0  0  0  0  0  0  0
    0.3978   -5.1561   26.6955 C   0  0  0  0  0  0  0  0  0  0  0  0
    2.3063  -10.0533   30.0125 C   0  0  0  0  0  0  0  0  0  0  0  0
    1.8591   -6.8254   27.4685 N   0  0  0  0  0  0  0  0  0  0  0  0
   -0.2167  -12.1055   18.5568 C   0  0  0  0  0  0  0  0  0  0  0  0
   -2.0661  -10.6994   18.1916 C   0  0  0  0  0  0  0  0  0  0  0  0
    5.2703   -7.5691   27.1123 C   0  0  0  0  0  0  0  0  0  0  0  0
    1.6204   -9.9887   17.2935 C   0  0  0  0  0  0  0  0  0  0  0  0
    1.8931   -7.9265   16.2047 C   0  0  0  0  0  0  0  0  0  0  0  0
    2.4396   -9.0801   16.7132 C   0  0  0  0  0  0  0  0  0  0  0  0
   -0.2575   -8.6234   16.8582 C   0  0  0  0  0  0  0  0  0  0  0  0
    4.0614   -7.0367   27.0106 N   0  0  0  0  0  0  0  0  0  0  0  0
   -2.9133  -11.6279   18.7578 C   0  0  0  0  0  0  0  0  0  0  0  0
    4.5688  -10.1291   29.5758 C   0  0  0  0  0  0  0  0  0  0  0  0
    2.1008   -9.0410   29.1852 N   0  0  0  0  0  0  0  0  0  0  0  0
    3.4829  -10.5697   30.2091 N   0  0  0  0  0  0  0  0  0  0  0  0
   -0.3363   -6.1172   27.5628 C   0  0  0  0  0  0  0  0  0  0  0  0
    3.0331   -7.4400   27.6362 C   0  0  0  0  0  0  0  0  0  0  0  0
    5.4553   -8.5933   27.9644 C   0  0  0  0  0  0  0  0  0  0  0  0
   -2.3870  -12.8440   19.2512 C   0  0  0  0  0  0  0  0  0  0  0  0
    0.5331   -7.6964   16.2751 C   0  0  0  0  0  0  0  0  0  0  0  0
   -0.6740  -10.8737   18.0482 C   0  0  0  0  0  0  0  0  0  0  0  0
    5.6751  -10.5870   29.7637 O   0  0  0  0  0  0  0  0  0  0  0  0
    1.7612   -5.6483   26.7172 C   0  0  0  0  0  0  0  0  0  0  0  0
    0.2221   -9.8326   17.4055 C   0  0  0  0  0  0  0  0  0  0  0  0
    4.3850   -9.0730   28.6745 C   0  0  0  0  0  0  0  0  0  0  0  0
  1  7  4  0
  1 22  4  0
  2 17  4  0
  2 20  4  0
  2 28  4  0
  3  6  1  0
  3 19  1  0
  4 19  1  0
  4 26  1  0
  5 17  4  0
  5 18  4  0
  6 20  1  0
  6 26  1  0
  7 24  4  0
  8 15  4  0
  8 24  4  0
  9 14  4  0
  9 21  4  0
 10 12  4  0
 10 27  4  0
 11 12  4  0
 11 23  4  0
 13 23  4  0
 13 27  4  0
 14 20  4  0
 15 22  4  0
 16 18  4  0
 16 25  2  0
 16 28  4  0
 21 28  4  0
 24 27  1  0
M  END
$$$$

 Created by Python create_sdf_string function

 28 31  0  0  0  0  0  0  0  0999 V2000
   -1.0054  -13.0622   19.1198 C   0  0  0  0  0  0  0  0  0  0  0  0
    3.1478   -8.5360   28.5161 C   0  0  0  0  0  0  0  0  0  0  0  0
    0.5798   -7.1906   27.9330 C   0  0  0  0  0  0  0  0  0  0  0  0
    0.3978   -5.1561   26.6955 C   0  0  0  0  0  0  0  0  0  0  0  0
    2.3063  -10.0533   30.0125 C   0  0  0  0  0  0  0  0  0  0  0  0
    1.8591   -6.8254   27.4685 N   0  0  0  0  0  0  0  0  0  0  0  0
   -0.2167  -12.1055   18.5568 C   0  0  0  0  0  0  0  0  0  0  0  0
   -2.0661  -10.6994   18.1916 C   0  0  0  0  0  0  0  0  0  0  0  0
    5.2703   -7.5691   27.1123 C   0  0  0  0  0  0  0  0  0  0  0  0
    1.6204   -9.9887   17.2935 C   0  0  0  0  0  0  0  0  0  0  0  0
    1.8931   -7.9265   16.2047 C   0  0  0  0  0  0  0  0  0  0  0  0
    2.4396   -9.0801   16.7132 C   0  0  0  0  0  0  0  0  0  0  0  0
   -0.2575   -8.6234   16.8582 C   0  0  0  0  0  0  0  0  0  0  0  0
    4.0614   -7.0367   27.0106 N   0  0  0  0  0  0  0  0  0  0  0  0
   -2.9133  -11.6279   18.7578 C   0  0  0  0  0  0  0  0  0  0  0  0
    4.5688  -10.1291   29.5758 C   0  0  0  0  0  0  0  0  0  0  0  0
    2.1008   -9.0410   29.1852 N   0  0  0  0  0  0  0  0  0  0  0  0
    3.4829  -10.5697   30.2091 N   0  0  0  0  0  0  0  0  0  0  0  0
   -0.3363   -6.1172   27.5628 C   0  0  0  0  0  0  0  0  0  0  0  0
    3.0331   -7.4400   27.6362 C   0  0  0  0  0  0  0  0  0  0  0  0
    5.4553   -8.5933   27.9644 C   0  0  0  0  0  0  0  0  0  0  0  0
   -2.3870  -12.8440   19.2512 C   0  0  0  0  0  0  0  0  0  0  0  0
    0.5331   -7.6964   16.2751 C   0  0  0  0  0  0  0  0  0  0  0  0
   -0.6740  -10.8737   18.0482 C   0  0  0  0  0  0  0  0  0  0  0  0
    5.6751  -10.5870   29.7637 O   0  0  0  0  0  0  0  0  0  0  0  0
    1.7612   -5.6483   26.7172 C   0  0  0  0  0  0  0  0  0  0  0  0
    0.2221   -9.8326   17.4055 C   0  0  0  0  0  0  0  0  0  0  0  0
    4.3850   -9.0730   28.6745 C   0  0  0  0  0  0  0  0  0  0  0  0
  1  7  4  0
  1 22  4  0
  2 17  4  0
  2 20  4  0
  2 28  4  0
  3  6  1  0
  3 19  1  0
  4 19  1  0
  4 26  1  0
  5 17  4  0
  5 18  4  0
  6 20  1  0
  6 26  1  0
  7 24  4  0
  8 15  4  0
  8 24  4  0
  9 14  4  0
  9 21  4  0
 10 12  4  0
 10 27  4  0
 11 12  4  0
 11 23  4  0
 13 23  4  0
 13 27  4  0
 14 20  4  0
 15 22  4  0
 16 18  4  0
 16 25  2  0
 16 28  4  0
 21 28  4  0
 24 27  1  0
M  END
$$$$

 Created by Python create_sdf_string function

 28 31  0  0  0  0  0  0  0  0999 V2000
   -1.0054  -13.0622   19.1198 C   0  0  0  0  0  0  0  0  0  0  0  0
    3.1478   -8.5360   28.5161 C   0  0  0  0  0  0  0  0  0  0  0  0
    0.5798   -7.1906   27.9330 C   0  0  0  0  0  0  0  0  0  0  0  0
    0.3978   -5.1561   26.6955 C   0  0  0  0  0  0  0  0  0  0  0  0
    2.3063  -10.0533   30.0125 C   0  0  0  0  0  0  0  0  0  0  0  0
    1.8591   -6.8254   27.4685 N   0  0  0  0  0  0  0  0  0  0  0  0
   -0.2167  -12.1055   18.5568 C   0  0  0  0  0  0  0  0  0  0  0  0
   -2.0661  -10.6994   18.1916 C   0  0  0  0  0  0  0  0  0  0  0  0
    5.2703   -7.5691   27.1123 C   0  0  0  0  0  0  0  0  0  0  0  0
    1.6204   -9.9887   17.2935 C   0  0  0  0  0  0  0  0  0  0  0  0
    1.8931   -7.9265   16.2047 C   0  0  0  0  0  0  0  0  0  0  0  0
    2.4396   -9.0801   16.7132 C   0  0  0  0  0  0  0  0  0  0  0  0
   -0.2575   -8.6234   16.8582 C   0  0  0  0  0  0  0  0  0  0  0  0
    4.0614   -7.0367   27.0106 N   0  0  0  0  0  0  0  0  0  0  0  0
   -2.9133  -11.6279   18.7578 C   0  0  0  0  0  0  0  0  0  0  0  0
    4.5688  -10.1291   29.5758 C   0  0  0  0  0  0  0  0  0  0  0  0
    2.1008   -9.0410   29.1852 N   0  0  0  0  0  0  0  0  0  0  0  0
    3.4829  -10.5697   30.2091 N   0  0  0  0  0  0  0  0  0  0  0  0
   -0.3363   -6.1172   27.5628 C   0  0  0  0  0  0  0  0  0  0  0  0
    3.0331   -7.4400   27.6362 C   0  0  0  0  0  0  0  0  0  0  0  0
    5.4553   -8.5933   27.9644 C   0  0  0  0  0  0  0  0  0  0  0  0
   -2.3870  -12.8440   19.2512 C   0  0  0  0  0  0  0  0  0  0  0  0
    0.5331   -7.6964   16.2751 C   0  0  0  0  0  0  0  0  0  0  0  0
   -0.6740  -10.8737   18.0482 C   0  0  0  0  0  0  0  0  0  0  0  0
    5.6751  -10.5870   29.7637 O   0  0  0  0  0  0  0  0  0  0  0  0
    1.7612   -5.6483   26.7172 C   0  0  0  0  0  0  0  0  0  0  0  0
    0.2221   -9.8326   17.4055 C   0  0  0  0  0  0  0  0  0  0  0  0
    4.3850   -9.0730   28.6745 C   0  0  0  0  0  0  0  0  0  0  0  0
  1  7  4  0
  1 22  4  0
  2 17  4  0
  2 20  4  0
  2 28  4  0
  3  6  1  0
  3 19  1  0
  4 19  1  0
  4 26  1  0
  5 17  4  0
  5 18  4  0
  6 20  1  0
  6 26  1  0
  7 24  4  0
  8 15  4  0
  8 24  4  0
  9 14  4  0
  9 21  4  0
 10 12  4  0
 10 27  4  0
 11 12  4  0
 11 23  4  0
 13 23  4  0
 13 27  4  0
 14 20  4  0
 15 22  4  0
 16 18  4  0
 16 25  2  0
 16 28  4  0
 21 28  4  0
 24 27  1  0
M  END
$$$$

 Created by Python create_sdf_string function

 28 31  0  0  0  0  0  0  0  0999 V2000
   -1.0054  -13.0622   19.1198 C   0  0  0  0  0  0  0  0  0  0  0  0
    3.1478   -8.5360   28.5161 C   0  0  0  0  0  0  0  0  0  0  0  0
    0.5798   -7.1906   27.9330 C   0  0  0  0  0  0  0  0  0  0  0  0
    0.3978   -5.1561   26.6955 C   0  0  0  0  0  0  0  0  0  0  0  0
    2.3063  -10.0533   30.0125 C   0  0  0  0  0  0  0  0  0  0  0  0
    1.8591   -6.8254   27.4685 N   0  0  0  0  0  0  0  0  0  0  0  0
   -0.2167  -12.1055   18.5568 C   0  0  0  0  0  0  0  0  0  0  0  0
   -2.0661  -10.6994   18.1916 C   0  0  0  0  0  0  0  0  0  0  0  0
    5.2703   -7.5691   27.1123 C   0  0  0  0  0  0  0  0  0  0  0  0
    1.6204   -9.9887   17.2935 C   0  0  0  0  0  0  0  0  0  0  0  0
    1.8931   -7.9265   16.2047 C   0  0  0  0  0  0  0  0  0  0  0  0
    2.4396   -9.0801   16.7132 C   0  0  0  0  0  0  0  0  0  0  0  0
   -0.2575   -8.6234   16.8582 C   0  0  0  0  0  0  0  0  0  0  0  0
    4.0614   -7.0367   27.0106 N   0  0  0  0  0  0  0  0  0  0  0  0
   -2.9133  -11.6279   18.7578 C   0  0  0  0  0  0  0  0  0  0  0  0
    4.5688  -10.1291   29.5758 C   0  0  0  0  0  0  0  0  0  0  0  0
    2.1008   -9.0410   29.1852 N   0  0  0  0  0  0  0  0  0  0  0  0
    3.4829  -10.5697   30.2091 N   0  0  0  0  0  0  0  0  0  0  0  0
   -0.3363   -6.1172   27.5628 C   0  0  0  0  0  0  0  0  0  0  0  0
    3.0331   -7.4400   27.6362 C   0  0  0  0  0  0  0  0  0  0  0  0
    5.4553   -8.5933   27.9644 C   0  0  0  0  0  0  0  0  0  0  0  0
   -2.3870  -12.8440   19.2512 C   0  0  0  0  0  0  0  0  0  0  0  0
    0.5331   -7.6964   16.2751 C   0  0  0  0  0  0  0  0  0  0  0  0
   -0.6740  -10.8737   18.0482 C   0  0  0  0  0  0  0  0  0  0  0  0
    5.6751  -10.5870   29.7637 O   0  0  0  0  0  0  0  0  0  0  0  0
    1.7612   -5.6483   26.7172 C   0  0  0  0  0  0  0  0  0  0  0  0
    0.2221   -9.8326   17.4055 C   0  0  0  0  0  0  0  0  0  0  0  0
    4.3850   -9.0730   28.6745 C   0  0  0  0  0  0  0  0  0  0  0  0
  1  7  4  0
  1 22  4  0
  2 17  4  0
  2 20  4  0
  2 28  4  0
  3  6  1  0
  3 19  1  0
  4 19  1  0
  4 26  1  0
  5 17  4  0
  5 18  4  0
  6 20  1  0
  6 26  1  0
  7 24  4  0
  8 15  4  0
  8 24  4  0
  9 14  4  0
  9 21  4  0
 10 12  4  0
 10 27  4  0
 11 12  4  0
 11 23  4  0
 13 23  4  0
 13 27  4  0
 14 20  4  0
 15 22  4  0
 16 18  4  0
 16 25  2  0
 16 28  4  0
 21 28  4  0
 24 27  1  0
M  END
$$$$

 Created by Python create_sdf_string function

 28 31  0  0  0  0  0  0  0  0999 V2000
   -1.0054  -13.0622   19.1198 C   0  0  0  0  0  0  0  0  0  0  0  0
    3.1478   -8.5360   28.5161 C   0  0  0  0  0  0  0  0  0  0  0  0
    0.5798   -7.1906   27.9330 C   0  0  0  0  0  0  0  0  0  0  0  0
    0.3978   -5.1561   26.6955 C   0  0  0  0  0  0  0  0  0  0  0  0
    2.3063  -10.0533   30.0125 C   0  0  0  0  0  0  0  0  0  0  0  0
    1.8591   -6.8254   27.4685 N   0  0  0  0  0  0  0  0  0  0  0  0
   -0.2167  -12.1055   18.5568 C   0  0  0  0  0  0  0  0  0  0  0  0
   -2.0661  -10.6994   18.1916 C   0  0  0  0  0  0  0  0  0  0  0  0
    5.2703   -7.5691   27.1123 C   0  0  0  0  0  0  0  0  0  0  0  0
    1.6204   -9.9887   17.2935 C   0  0  0  0  0  0  0  0  0  0  0  0
    1.8931   -7.9265   16.2047 C   0  0  0  0  0  0  0  0  0  0  0  0
    2.4396   -9.0801   16.7132 C   0  0  0  0  0  0  0  0  0  0  0  0
   -0.2575   -8.6234   16.8582 C   0  0  0  0  0  0  0  0  0  0  0  0
    4.0614   -7.0367   27.0106 N   0  0  0  0  0  0  0  0  0  0  0  0
   -2.9133  -11.6279   18.7578 C   0  0  0  0  0  0  0  0  0  0  0  0
    4.5688  -10.1291   29.5758 C   0  0  0  0  0  0  0  0  0  0  0  0
    2.1008   -9.0410   29.1852 N   0  0  0  0  0  0  0  0  0  0  0  0
    3.4829  -10.5697   30.2091 N   0  0  0  0  0  0  0  0  0  0  0  0
   -0.3363   -6.1172   27.5628 C   0  0  0  0  0  0  0  0  0  0  0  0
    3.0331   -7.4400   27.6362 C   0  0  0  0  0  0  0  0  0  0  0  0
    5.4553   -8.5933   27.9644 C   0  0  0  0  0  0  0  0  0  0  0  0
   -2.3870  -12.8440   19.2512 C   0  0  0  0  0  0  0  0  0  0  0  0
    0.5331   -7.6964   16.2751 C   0  0  0  0  0  0  0  0  0  0  0  0
   -0.6740  -10.8737   18.0482 C   0  0  0  0  0  0  0  0  0  0  0  0
    5.6751  -10.5870   29.7637 O   0  0  0  0  0  0  0  0  0  0  0  0
    1.7612   -5.6483   26.7172 C   0  0  0  0  0  0  0  0  0  0  0  0
    0.2221   -9.8326   17.4055 C   0  0  0  0  0  0  0  0  0  0  0  0
    4.3850   -9.0730   28.6745 C   0  0  0  0  0  0  0  0  0  0  0  0
  1  7  4  0
  1 22  4  0
  2 17  4  0
  2 20  4  0
  2 28  4  0
  3  6  1  0
  3 19  1  0
  4 19  1  0
  4 26  1  0
  5 17  4  0
  5 18  4  0
  6 20  1  0
  6 26  1  0
  7 24  4  0
  8 15  4  0
  8 24  4  0
  9 14  4  0
  9 21  4  0
 10 12  4  0
 10 27  4  0
 11 12  4  0
 11 23  4  0
 13 23  4  0
 13 27  4  0
 14 20  4  0
 15 22  4  0
 16 18  4  0
 16 25  2  0
 16 28  4  0
 21 28  4  0
 24 27  1  0
M  END
$$$$

 Created by Python create_sdf_string function

 28 31  0  0  0  0  0  0  0  0999 V2000
   -1.0054  -13.0622   19.1198 C   0  0  0  0  0  0  0  0  0  0  0  0
    3.1478   -8.5360   28.5161 C   0  0  0  0  0  0  0  0  0  0  0  0
    0.5798   -7.1906   27.9330 C   0  0  0  0  0  0  0  0  0  0  0  0
    0.3978   -5.1561   26.6955 C   0  0  0  0  0  0  0  0  0  0  0  0
    2.3063  -10.0533   30.0125 C   0  0  0  0  0  0  0  0  0  0  0  0
    1.8591   -6.8254   27.4685 N   0  0  0  0  0  0  0  0  0  0  0  0
   -0.2167  -12.1055   18.5568 C   0  0  0  0  0  0  0  0  0  0  0  0
   -2.0661  -10.6994   18.1916 C   0  0  0  0  0  0  0  0  0  0  0  0
    5.2703   -7.5691   27.1123 C   0  0  0  0  0  0  0  0  0  0  0  0
    1.6204   -9.9887   17.2935 C   0  0  0  0  0  0  0  0  0  0  0  0
    1.8931   -7.9265   16.2047 C   0  0  0  0  0  0  0  0  0  0  0  0
    2.4396   -9.0801   16.7132 C   0  0  0  0  0  0  0  0  0  0  0  0
   -0.2575   -8.6234   16.8582 C   0  0  0  0  0  0  0  0  0  0  0  0
    4.0614   -7.0367   27.0106 N   0  0  0  0  0  0  0  0  0  0  0  0
   -2.9133  -11.6279   18.7578 C   0  0  0  0  0  0  0  0  0  0  0  0
    4.5688  -10.1291   29.5758 C   0  0  0  0  0  0  0  0  0  0  0  0
    2.1008   -9.0410   29.1852 N   0  0  0  0  0  0  0  0  0  0  0  0
    3.4829  -10.5697   30.2091 N   0  0  0  0  0  0  0  0  0  0  0  0
   -0.3363   -6.1172   27.5628 C   0  0  0  0  0  0  0  0  0  0  0  0
    3.0331   -7.4400   27.6362 C   0  0  0  0  0  0  0  0  0  0  0  0
    5.4553   -8.5933   27.9644 C   0  0  0  0  0  0  0  0  0  0  0  0
   -2.3870  -12.8440   19.2512 C   0  0  0  0  0  0  0  0  0  0  0  0
    0.5331   -7.6964   16.2751 C   0  0  0  0  0  0  0  0  0  0  0  0
   -0.6740  -10.8737   18.0482 C   0  0  0  0  0  0  0  0  0  0  0  0
    5.6751  -10.5870   29.7637 O   0  0  0  0  0  0  0  0  0  0  0  0
    1.7612   -5.6483   26.7172 C   0  0  0  0  0  0  0  0  0  0  0  0
    0.2221   -9.8326   17.4055 C   0  0  0  0  0  0  0  0  0  0  0  0
    4.3850   -9.0730   28.6745 C   0  0  0  0  0  0  0  0  0  0  0  0
  1  7  4  0
  1 22  4  0
  2 17  4  0
  2 20  4  0
  2 28  4  0
  3  6  1  0
  3 19  1  0
  4 19  1  0
  4 26  1  0
  5 17  4  0
  5 18  4  0
  6 20  1  0
  6 26  1  0
  7 24  4  0
  8 15  4  0
  8 24  4  0
  9 14  4  0
  9 21  4  0
 10 12  4  0
 10 27  4  0
 11 12  4  0
 11 23  4  0
 13 23  4  0
 13 27  4  0
 14 20  4  0
 15 22  4  0
 16 18  4  0
 16 25  2  0
 16 28  4  0
 21 28  4  0
 24 27  1  0
M  END
$$$$

 Created by Python create_sdf_string function

 28 31  0  0  0  0  0  0  0  0999 V2000
   -1.0054  -13.0622   19.1198 C   0  0  0  0  0  0  0  0  0  0  0  0
    3.1478   -8.5360   28.5161 C   0  0  0  0  0  0  0  0  0  0  0  0
    0.5798   -7.1906   27.9330 C   0  0  0  0  0  0  0  0  0  0  0  0
    0.3978   -5.1561   26.6955 C   0  0  0  0  0  0  0  0  0  0  0  0
    2.3063  -10.0533   30.0125 C   0  0  0  0  0  0  0  0  0  0  0  0
    1.8591   -6.8254   27.4685 N   0  0  0  0  0  0  0  0  0  0  0  0
   -0.2167  -12.1055   18.5568 C   0  0  0  0  0  0  0  0  0  0  0  0
   -2.0661  -10.6994   18.1916 C   0  0  0  0  0  0  0  0  0  0  0  0
    5.2703   -7.5691   27.1123 C   0  0  0  0  0  0  0  0  0  0  0  0
    1.6204   -9.9887   17.2935 C   0  0  0  0  0  0  0  0  0  0  0  0
    1.8931   -7.9265   16.2047 C   0  0  0  0  0  0  0  0  0  0  0  0
    2.4396   -9.0801   16.7132 C   0  0  0  0  0  0  0  0  0  0  0  0
   -0.2575   -8.6234   16.8582 C   0  0  0  0  0  0  0  0  0  0  0  0
    4.0614   -7.0367   27.0106 N   0  0  0  0  0  0  0  0  0  0  0  0
   -2.9133  -11.6279   18.7578 C   0  0  0  0  0  0  0  0  0  0  0  0
    4.5688  -10.1291   29.5758 C   0  0  0  0  0  0  0  0  0  0  0  0
    2.1008   -9.0410   29.1852 N   0  0  0  0  0  0  0  0  0  0  0  0
    3.4829  -10.5697   30.2091 N   0  0  0  0  0  0  0  0  0  0  0  0
   -0.3363   -6.1172   27.5628 C   0  0  0  0  0  0  0  0  0  0  0  0
    3.0331   -7.4400   27.6362 C   0  0  0  0  0  0  0  0  0  0  0  0
    5.4553   -8.5933   27.9644 C   0  0  0  0  0  0  0  0  0  0  0  0
   -2.3870  -12.8440   19.2512 C   0  0  0  0  0  0  0  0  0  0  0  0
    0.5331   -7.6964   16.2751 C   0  0  0  0  0  0  0  0  0  0  0  0
   -0.6740  -10.8737   18.0482 C   0  0  0  0  0  0  0  0  0  0  0  0
    5.6751  -10.5870   29.7637 O   0  0  0  0  0  0  0  0  0  0  0  0
    1.7612   -5.6483   26.7172 C   0  0  0  0  0  0  0  0  0  0  0  0
    0.2221   -9.8326   17.4055 C   0  0  0  0  0  0  0  0  0  0  0  0
    4.3850   -9.0730   28.6745 C   0  0  0  0  0  0  0  0  0  0  0  0
  1  7  4  0
  1 22  4  0
  2 17  4  0
  2 20  4  0
  2 28  4  0
  3  6  1  0
  3 19  1  0
  4 19  1  0
  4 26  1  0
  5 17  4  0
  5 18  4  0
  6 20  1  0
  6 26  1  0
  7 24  4  0
  8 15  4  0
  8 24  4  0
  9 14  4  0
  9 21  4  0
 10 12  4  0
 10 27  4  0
 11 12  4  0
 11 23  4  0
 13 23  4  0
 13 27  4  0
 14 20  4  0
 15 22  4  0
 16 18  4  0
 16 25  2  0
 16 28  4  0
 21 28  4  0
 24 27  1  0
M  END
$$$$

 Created by Python create_sdf_string function

 28 31  0  0  0  0  0  0  0  0999 V2000
   -1.0054  -13.0622   19.1198 C   0  0  0  0  0  0  0  0  0  0  0  0
    3.1478   -8.5360   28.5161 C   0  0  0  0  0  0  0  0  0  0  0  0
    0.5798   -7.1906   27.9330 C   0  0  0  0  0  0  0  0  0  0  0  0
    0.3978   -5.1561   26.6955 C   0  0  0  0  0  0  0  0  0  0  0  0
    2.3063  -10.0533   30.0125 C   0  0  0  0  0  0  0  0  0  0  0  0
    1.8591   -6.8254   27.4685 N   0  0  0  0  0  0  0  0  0  0  0  0
   -0.2167  -12.1055   18.5568 C   0  0  0  0  0  0  0  0  0  0  0  0
   -2.0661  -10.6994   18.1916 C   0  0  0  0  0  0  0  0  0  0  0  0
    5.2703   -7.5691   27.1123 C   0  0  0  0  0  0  0  0  0  0  0  0
    1.6204   -9.9887   17.2935 C   0  0  0  0  0  0  0  0  0  0  0  0
    1.8931   -7.9265   16.2047 C   0  0  0  0  0  0  0  0  0  0  0  0
    2.4396   -9.0801   16.7132 C   0  0  0  0  0  0  0  0  0  0  0  0
   -0.2575   -8.6234   16.8582 C   0  0  0  0  0  0  0  0  0  0  0  0
    4.0614   -7.0367   27.0106 N   0  0  0  0  0  0  0  0  0  0  0  0
   -2.9133  -11.6279   18.7578 C   0  0  0  0  0  0  0  0  0  0  0  0
    4.5688  -10.1291   29.5758 C   0  0  0  0  0  0  0  0  0  0  0  0
    2.1008   -9.0410   29.1852 N   0  0  0  0  0  0  0  0  0  0  0  0
    3.4829  -10.5697   30.2091 N   0  0  0  0  0  0  0  0  0  0  0  0
   -0.3363   -6.1172   27.5628 C   0  0  0  0  0  0  0  0  0  0  0  0
    3.0331   -7.4400   27.6362 C   0  0  0  0  0  0  0  0  0  0  0  0
    5.4553   -8.5933   27.9644 C   0  0  0  0  0  0  0  0  0  0  0  0
   -2.3870  -12.8440   19.2512 C   0  0  0  0  0  0  0  0  0  0  0  0
    0.5331   -7.6964   16.2751 C   0  0  0  0  0  0  0  0  0  0  0  0
   -0.6740  -10.8737   18.0482 C   0  0  0  0  0  0  0  0  0  0  0  0
    5.6751  -10.5870   29.7637 O   0  0  0  0  0  0  0  0  0  0  0  0
    1.7612   -5.6483   26.7172 C   0  0  0  0  0  0  0  0  0  0  0  0
    0.2221   -9.8326   17.4055 C   0  0  0  0  0  0  0  0  0  0  0  0
    4.3850   -9.0730   28.6745 C   0  0  0  0  0  0  0  0  0  0  0  0
  1  7  4  0
  1 22  4  0
  2 17  4  0
  2 20  4  0
  2 28  4  0
  3  6  1  0
  3 19  1  0
  4 19  1  0
  4 26  1  0
  5 17  4  0
  5 18  4  0
  6 20  1  0
  6 26  1  0
  7 24  4  0
  8 15  4  0
  8 24  4  0
  9 14  4  0
  9 21  4  0
 10 12  4  0
 10 27  4  0
 11 12  4  0
 11 23  4  0
 13 23  4  0
 13 27  4  0
 14 20  4  0
 15 22  4  0
 16 18  4  0
 16 25  2  0
 16 28  4  0
 21 28  4  0
 24 27  1  0
M  END
$$$$

 Created by Python create_sdf_string function

 28 31  0  0  0  0  0  0  0  0999 V2000
   -1.0054  -13.0622   19.1198 C   0  0  0  0  0  0  0  0  0  0  0  0
    3.1478   -8.5360   28.5161 C   0  0  0  0  0  0  0  0  0  0  0  0
    0.5798   -7.1906   27.9330 C   0  0  0  0  0  0  0  0  0  0  0  0
    0.3978   -5.1561   26.6955 C   0  0  0  0  0  0  0  0  0  0  0  0
    2.3063  -10.0533   30.0125 C   0  0  0  0  0  0  0  0  0  0  0  0
    1.8591   -6.8254   27.4685 N   0  0  0  0  0  0  0  0  0  0  0  0
   -0.2167  -12.1055   18.5568 C   0  0  0  0  0  0  0  0  0  0  0  0
   -2.0661  -10.6994   18.1916 C   0  0  0  0  0  0  0  0  0  0  0  0
    5.2703   -7.5691   27.1123 C   0  0  0  0  0  0  0  0  0  0  0  0
    1.6204   -9.9887   17.2935 C   0  0  0  0  0  0  0  0  0  0  0  0
    1.8931   -7.9265   16.2047 C   0  0  0  0  0  0  0  0  0  0  0  0
    2.4396   -9.0801   16.7132 C   0  0  0  0  0  0  0  0  0  0  0  0
   -0.2575   -8.6234   16.8582 C   0  0  0  0  0  0  0  0  0  0  0  0
    4.0614   -7.0367   27.0106 N   0  0  0  0  0  0  0  0  0  0  0  0
   -2.9133  -11.6279   18.7578 C   0  0  0  0  0  0  0  0  0  0  0  0
    4.5688  -10.1291   29.5758 C   0  0  0  0  0  0  0  0  0  0  0  0
    2.1008   -9.0410   29.1852 N   0  0  0  0  0  0  0  0  0  0  0  0
    3.4829  -10.5697   30.2091 N   0  0  0  0  0  0  0  0  0  0  0  0
   -0.3363   -6.1172   27.5628 C   0  0  0  0  0  0  0  0  0  0  0  0
    3.0331   -7.4400   27.6362 C   0  0  0  0  0  0  0  0  0  0  0  0
    5.4553   -8.5933   27.9644 C   0  0  0  0  0  0  0  0  0  0  0  0
   -2.3870  -12.8440   19.2512 C   0  0  0  0  0  0  0  0  0  0  0  0
    0.5331   -7.6964   16.2751 C   0  0  0  0  0  0  0  0  0  0  0  0
   -0.6740  -10.8737   18.0482 C   0  0  0  0  0  0  0  0  0  0  0  0
    5.6751  -10.5870   29.7637 O   0  0  0  0  0  0  0  0  0  0  0  0
    1.7612   -5.6483   26.7172 C   0  0  0  0  0  0  0  0  0  0  0  0
    0.2221   -9.8326   17.4055 C   0  0  0  0  0  0  0  0  0  0  0  0
    4.3850   -9.0730   28.6745 C   0  0  0  0  0  0  0  0  0  0  0  0
  1  7  4  0
  1 22  4  0
  2 17  4  0
  2 20  4  0
  2 28  4  0
  3  6  1  0
  3 19  1  0
  4 19  1  0
  4 26  1  0
  5 17  4  0
  5 18  4  0
  6 20  1  0
  6 26  1  0
  7 24  4  0
  8 15  4  0
  8 24  4  0
  9 14  4  0
  9 21  4  0
 10 12  4  0
 10 27  4  0
 11 12  4  0
 11 23  4  0
 13 23  4  0
 13 27  4  0
 14 20  4  0
 15 22  4  0
 16 18  4  0
 16 25  2  0
 16 28  4  0
 21 28  4  0
 24 27  1  0
M  END
$$$$

 Created by Python create_sdf_string function

 28 31  0  0  0  0  0  0  0  0999 V2000
   -1.0054  -13.0622   19.1198 C   0  0  0  0  0  0  0  0  0  0  0  0
    3.1478   -8.5360   28.5161 C   0  0  0  0  0  0  0  0  0  0  0  0
    0.5798   -7.1906   27.9330 C   0  0  0  0  0  0  0  0  0  0  0  0
    0.3978   -5.1561   26.6955 C   0  0  0  0  0  0  0  0  0  0  0  0
    2.3063  -10.0533   30.0125 C   0  0  0  0  0  0  0  0  0  0  0  0
    1.8591   -6.8254   27.4685 N   0  0  0  0  0  0  0  0  0  0  0  0
   -0.2167  -12.1055   18.5568 C   0  0  0  0  0  0  0  0  0  0  0  0
   -2.0661  -10.6994   18.1916 C   0  0  0  0  0  0  0  0  0  0  0  0
    5.2703   -7.5691   27.1123 C   0  0  0  0  0  0  0  0  0  0  0  0
    1.6204   -9.9887   17.2935 C   0  0  0  0  0  0  0  0  0  0  0  0
    1.8931   -7.9265   16.2047 C   0  0  0  0  0  0  0  0  0  0  0  0
    2.4396   -9.0801   16.7132 C   0  0  0  0  0  0  0  0  0  0  0  0
   -0.2575   -8.6234   16.8582 C   0  0  0  0  0  0  0  0  0  0  0  0
    4.0614   -7.0367   27.0106 N   0  0  0  0  0  0  0  0  0  0  0  0
   -2.9133  -11.6279   18.7578 C   0  0  0  0  0  0  0  0  0  0  0  0
    4.5688  -10.1291   29.5758 C   0  0  0  0  0  0  0  0  0  0  0  0
    2.1008   -9.0410   29.1852 N   0  0  0  0  0  0  0  0  0  0  0  0
    3.4829  -10.5697   30.2091 N   0  0  0  0  0  0  0  0  0  0  0  0
   -0.3363   -6.1172   27.5628 C   0  0  0  0  0  0  0  0  0  0  0  0
    3.0331   -7.4400   27.6362 C   0  0  0  0  0  0  0  0  0  0  0  0
    5.4553   -8.5933   27.9644 C   0  0  0  0  0  0  0  0  0  0  0  0
   -2.3870  -12.8440   19.2512 C   0  0  0  0  0  0  0  0  0  0  0  0
    0.5331   -7.6964   16.2751 C   0  0  0  0  0  0  0  0  0  0  0  0
   -0.6740  -10.8737   18.0482 C   0  0  0  0  0  0  0  0  0  0  0  0
    5.6751  -10.5870   29.7637 O   0  0  0  0  0  0  0  0  0  0  0  0
    1.7612   -5.6483   26.7172 C   0  0  0  0  0  0  0  0  0  0  0  0
    0.2221   -9.8326   17.4055 C   0  0  0  0  0  0  0  0  0  0  0  0
    4.3850   -9.0730   28.6745 C   0  0  0  0  0  0  0  0  0  0  0  0
  1  7  4  0
  1 22  4  0
  2 17  4  0
  2 20  4  0
  2 28  4  0
  3  6  1  0
  3 19  1  0
  4 19  1  0
  4 26  1  0
  5 17  4  0
  5 18  4  0
  6 20  1  0
  6 26  1  0
  7 24  4  0
  8 15  4  0
  8 24  4  0
  9 14  4  0
  9 21  4  0
 10 12  4  0
 10 27  4  0
 11 12  4  0
 11 23  4  0
 13 23  4  0
 13 27  4  0
 14 20  4  0
 15 22  4  0
 16 18  4  0
 16 25  2  0
 16 28  4  0
 21 28  4  0
 24 27  1  0
M  END
$$$$

 Created by Python create_sdf_string function

 28 31  0  0  0  0  0  0  0  0999 V2000
   -1.0054  -13.0622   19.1198 C   0  0  0  0  0  0  0  0  0  0  0  0
    3.1478   -8.5360   28.5161 C   0  0  0  0  0  0  0  0  0  0  0  0
    0.5798   -7.1906   27.9330 C   0  0  0  0  0  0  0  0  0  0  0  0
    0.3978   -5.1561   26.6955 C   0  0  0  0  0  0  0  0  0  0  0  0
    2.3063  -10.0533   30.0125 C   0  0  0  0  0  0  0  0  0  0  0  0
    1.8591   -6.8254   27.4685 N   0  0  0  0  0  0  0  0  0  0  0  0
   -0.2167  -12.1055   18.5568 C   0  0  0  0  0  0  0  0  0  0  0  0
   -2.0661  -10.6994   18.1916 C   0  0  0  0  0  0  0  0  0  0  0  0
    5.2703   -7.5691   27.1123 C   0  0  0  0  0  0  0  0  0  0  0  0
    1.6204   -9.9887   17.2935 C   0  0  0  0  0  0  0  0  0  0  0  0
    1.8931   -7.9265   16.2047 C   0  0  0  0  0  0  0  0  0  0  0  0
    2.4396   -9.0801   16.7132 C   0  0  0  0  0  0  0  0  0  0  0  0
   -0.2575   -8.6234   16.8582 C   0  0  0  0  0  0  0  0  0  0  0  0
    4.0614   -7.0367   27.0106 N   0  0  0  0  0  0  0  0  0  0  0  0
   -2.9133  -11.6279   18.7578 C   0  0  0  0  0  0  0  0  0  0  0  0
    4.5688  -10.1291   29.5758 C   0  0  0  0  0  0  0  0  0  0  0  0
    2.1008   -9.0410   29.1852 N   0  0  0  0  0  0  0  0  0  0  0  0
    3.4829  -10.5697   30.2091 N   0  0  0  0  0  0  0  0  0  0  0  0
   -0.3363   -6.1172   27.5628 C   0  0  0  0  0  0  0  0  0  0  0  0
    3.0331   -7.4400   27.6362 C   0  0  0  0  0  0  0  0  0  0  0  0
    5.4553   -8.5933   27.9644 C   0  0  0  0  0  0  0  0  0  0  0  0
   -2.3870  -12.8440   19.2512 C   0  0  0  0  0  0  0  0  0  0  0  0
    0.5331   -7.6964   16.2751 C   0  0  0  0  0  0  0  0  0  0  0  0
   -0.6740  -10.8737   18.0482 C   0  0  0  0  0  0  0  0  0  0  0  0
    5.6751  -10.5870   29.7637 O   0  0  0  0  0  0  0  0  0  0  0  0
    1.7612   -5.6483   26.7172 C   0  0  0  0  0  0  0  0  0  0  0  0
    0.2221   -9.8326   17.4055 C   0  0  0  0  0  0  0  0  0  0  0  0
    4.3850   -9.0730   28.6745 C   0  0  0  0  0  0  0  0  0  0  0  0
  1  7  4  0
  1 22  4  0
  2 17  4  0
  2 20  4  0
  2 28  4  0
  3  6  1  0
  3 19  1  0
  4 19  1  0
  4 26  1  0
  5 17  4  0
  5 18  4  0
  6 20  1  0
  6 26  1  0
  7 24  4  0
  8 15  4  0
  8 24  4  0
  9 14  4  0
  9 21  4  0
 10 12  4  0
 10 27  4  0
 11 12  4  0
 11 23  4  0
 13 23  4  0
 13 27  4  0
 14 20  4  0
 15 22  4  0
 16 18  4  0
 16 25  2  0
 16 28  4  0
 21 28  4  0
 24 27  1  0
M  END
$$$$

 Created by Python create_sdf_string function

 28 31  0  0  0  0  0  0  0  0999 V2000
   -1.0054  -13.0622   19.1198 C   0  0  0  0  0  0  0  0  0  0  0  0
    3.1478   -8.5360   28.5161 C   0  0  0  0  0  0  0  0  0  0  0  0
    0.5798   -7.1906   27.9330 C   0  0  0  0  0  0  0  0  0  0  0  0
    0.3978   -5.1561   26.6955 C   0  0  0  0  0  0  0  0  0  0  0  0
    2.3063  -10.0533   30.0125 C   0  0  0  0  0  0  0  0  0  0  0  0
    1.8591   -6.8254   27.4685 N   0  0  0  0  0  0  0  0  0  0  0  0
   -0.2167  -12.1055   18.5568 C   0  0  0  0  0  0  0  0  0  0  0  0
   -2.0661  -10.6994   18.1916 C   0  0  0  0  0  0  0  0  0  0  0  0
    5.2703   -7.5691   27.1123 C   0  0  0  0  0  0  0  0  0  0  0  0
    1.6204   -9.9887   17.2935 C   0  0  0  0  0  0  0  0  0  0  0  0
    1.8931   -7.9265   16.2047 C   0  0  0  0  0  0  0  0  0  0  0  0
    2.4396   -9.0801   16.7132 C   0  0  0  0  0  0  0  0  0  0  0  0
   -0.2575   -8.6234   16.8582 C   0  0  0  0  0  0  0  0  0  0  0  0
    4.0614   -7.0367   27.0106 N   0  0  0  0  0  0  0  0  0  0  0  0
   -2.9133  -11.6279   18.7578 C   0  0  0  0  0  0  0  0  0  0  0  0
    4.5688  -10.1291   29.5758 C   0  0  0  0  0  0  0  0  0  0  0  0
    2.1008   -9.0410   29.1852 N   0  0  0  0  0  0  0  0  0  0  0  0
    3.4829  -10.5697   30.2091 N   0  0  0  0  0  0  0  0  0  0  0  0
   -0.3363   -6.1172   27.5628 C   0  0  0  0  0  0  0  0  0  0  0  0
    3.0331   -7.4400   27.6362 C   0  0  0  0  0  0  0  0  0  0  0  0
    5.4553   -8.5933   27.9644 C   0  0  0  0  0  0  0  0  0  0  0  0
   -2.3870  -12.8440   19.2512 C   0  0  0  0  0  0  0  0  0  0  0  0
    0.5331   -7.6964   16.2751 C   0  0  0  0  0  0  0  0  0  0  0  0
   -0.6740  -10.8737   18.0482 C   0  0  0  0  0  0  0  0  0  0  0  0
    5.6751  -10.5870   29.7637 O   0  0  0  0  0  0  0  0  0  0  0  0
    1.7612   -5.6483   26.7172 C   0  0  0  0  0  0  0  0  0  0  0  0
    0.2221   -9.8326   17.4055 C   0  0  0  0  0  0  0  0  0  0  0  0
    4.3850   -9.0730   28.6745 C   0  0  0  0  0  0  0  0  0  0  0  0
  1  7  4  0
  1 22  4  0
  2 17  4  0
  2 20  4  0
  2 28  4  0
  3  6  1  0
  3 19  1  0
  4 19  1  0
  4 26  1  0
  5 17  4  0
  5 18  4  0
  6 20  1  0
  6 26  1  0
  7 24  4  0
  8 15  4  0
  8 24  4  0
  9 14  4  0
  9 21  4  0
 10 12  4  0
 10 27  4  0
 11 12  4  0
 11 23  4  0
 13 23  4  0
 13 27  4  0
 14 20  4  0
 15 22  4  0
 16 18  4  0
 16 25  2  0
 16 28  4  0
 21 28  4  0
 24 27  1  0
M  END
$$$$

 Created by Python create_sdf_string function

 28 31  0  0  0  0  0  0  0  0999 V2000
   -1.0054  -13.0622   19.1198 C   0  0  0  0  0  0  0  0  0  0  0  0
    3.1478   -8.5360   28.5161 C   0  0  0  0  0  0  0  0  0  0  0  0
    0.5798   -7.1906   27.9330 C   0  0  0  0  0  0  0  0  0  0  0  0
    0.3978   -5.1561   26.6955 C   0  0  0  0  0  0  0  0  0  0  0  0
    2.3063  -10.0533   30.0125 C   0  0  0  0  0  0  0  0  0  0  0  0
    1.8591   -6.8254   27.4685 N   0  0  0  0  0  0  0  0  0  0  0  0
   -0.2167  -12.1055   18.5568 C   0  0  0  0  0  0  0  0  0  0  0  0
   -2.0661  -10.6994   18.1916 C   0  0  0  0  0  0  0  0  0  0  0  0
    5.2703   -7.5691   27.1123 C   0  0  0  0  0  0  0  0  0  0  0  0
    1.6204   -9.9887   17.2935 C   0  0  0  0  0  0  0  0  0  0  0  0
    1.8931   -7.9265   16.2047 C   0  0  0  0  0  0  0  0  0  0  0  0
    2.4396   -9.0801   16.7132 C   0  0  0  0  0  0  0  0  0  0  0  0
   -0.2575   -8.6234   16.8582 C   0  0  0  0  0  0  0  0  0  0  0  0
    4.0614   -7.0367   27.0106 N   0  0  0  0  0  0  0  0  0  0  0  0
   -2.9133  -11.6279   18.7578 C   0  0  0  0  0  0  0  0  0  0  0  0
    4.5688  -10.1291   29.5758 C   0  0  0  0  0  0  0  0  0  0  0  0
    2.1008   -9.0410   29.1852 N   0  0  0  0  0  0  0  0  0  0  0  0
    3.4829  -10.5697   30.2091 N   0  0  0  0  0  0  0  0  0  0  0  0
   -0.3363   -6.1172   27.5628 C   0  0  0  0  0  0  0  0  0  0  0  0
    3.0331   -7.4400   27.6362 C   0  0  0  0  0  0  0  0  0  0  0  0
    5.4553   -8.5933   27.9644 C   0  0  0  0  0  0  0  0  0  0  0  0
   -2.3870  -12.8440   19.2512 C   0  0  0  0  0  0  0  0  0  0  0  0
    0.5331   -7.6964   16.2751 C   0  0  0  0  0  0  0  0  0  0  0  0
   -0.6740  -10.8737   18.0482 C   0  0  0  0  0  0  0  0  0  0  0  0
    5.6751  -10.5870   29.7637 O   0  0  0  0  0  0  0  0  0  0  0  0
    1.7612   -5.6483   26.7172 C   0  0  0  0  0  0  0  0  0  0  0  0
    0.2221   -9.8326   17.4055 C   0  0  0  0  0  0  0  0  0  0  0  0
    4.3850   -9.0730   28.6745 C   0  0  0  0  0  0  0  0  0  0  0  0
  1  7  4  0
  1 22  4  0
  2 17  4  0
  2 20  4  0
  2 28  4  0
  3  6  1  0
  3 19  1  0
  4 19  1  0
  4 26  1  0
  5 17  4  0
  5 18  4  0
  6 20  1  0
  6 26  1  0
  7 24  4  0
  8 15  4  0
  8 24  4  0
  9 14  4  0
  9 21  4  0
 10 12  4  0
 10 27  4  0
 11 12  4  0
 11 23  4  0
 13 23  4  0
 13 27  4  0
 14 20  4  0
 15 22  4  0
 16 18  4  0
 16 25  2  0
 16 28  4  0
 21 28  4  0
 24 27  1  0
M  END
$$$$

 Created by Python create_sdf_string function

 28 31  0  0  0  0  0  0  0  0999 V2000
   -1.0054  -13.0622   19.1198 C   0  0  0  0  0  0  0  0  0  0  0  0
    3.1478   -8.5360   28.5161 C   0  0  0  0  0  0  0  0  0  0  0  0
    0.5798   -7.1906   27.9330 C   0  0  0  0  0  0  0  0  0  0  0  0
    0.3978   -5.1561   26.6955 C   0  0  0  0  0  0  0  0  0  0  0  0
    2.3063  -10.0533   30.0125 C   0  0  0  0  0  0  0  0  0  0  0  0
    1.8591   -6.8254   27.4685 N   0  0  0  0  0  0  0  0  0  0  0  0
   -0.2167  -12.1055   18.5568 C   0  0  0  0  0  0  0  0  0  0  0  0
   -2.0661  -10.6994   18.1916 C   0  0  0  0  0  0  0  0  0  0  0  0
    5.2703   -7.5691   27.1123 C   0  0  0  0  0  0  0  0  0  0  0  0
    1.6204   -9.9887   17.2935 C   0  0  0  0  0  0  0  0  0  0  0  0
    1.8931   -7.9265   16.2047 C   0  0  0  0  0  0  0  0  0  0  0  0
    2.4396   -9.0801   16.7132 C   0  0  0  0  0  0  0  0  0  0  0  0
   -0.2575   -8.6234   16.8582 C   0  0  0  0  0  0  0  0  0  0  0  0
    4.0614   -7.0367   27.0106 N   0  0  0  0  0  0  0  0  0  0  0  0
   -2.9133  -11.6279   18.7578 C   0  0  0  0  0  0  0  0  0  0  0  0
    4.5688  -10.1291   29.5758 C   0  0  0  0  0  0  0  0  0  0  0  0
    2.1008   -9.0410   29.1852 N   0  0  0  0  0  0  0  0  0  0  0  0
    3.4829  -10.5697   30.2091 N   0  0  0  0  0  0  0  0  0  0  0  0
   -0.3363   -6.1172   27.5628 C   0  0  0  0  0  0  0  0  0  0  0  0
    3.0331   -7.4400   27.6362 C   0  0  0  0  0  0  0  0  0  0  0  0
    5.4553   -8.5933   27.9644 C   0  0  0  0  0  0  0  0  0  0  0  0
   -2.3870  -12.8440   19.2512 C   0  0  0  0  0  0  0  0  0  0  0  0
    0.5331   -7.6964   16.2751 C   0  0  0  0  0  0  0  0  0  0  0  0
   -0.6740  -10.8737   18.0482 C   0  0  0  0  0  0  0  0  0  0  0  0
    5.6751  -10.5870   29.7637 O   0  0  0  0  0  0  0  0  0  0  0  0
    1.7612   -5.6483   26.7172 C   0  0  0  0  0  0  0  0  0  0  0  0
    0.2221   -9.8326   17.4055 C   0  0  0  0  0  0  0  0  0  0  0  0
    4.3850   -9.0730   28.6745 C   0  0  0  0  0  0  0  0  0  0  0  0
  1  7  4  0
  1 22  4  0
  2 17  4  0
  2 20  4  0
  2 28  4  0
  3  6  1  0
  3 19  1  0
  4 19  1  0
  4 26  1  0
  5 17  4  0
  5 18  4  0
  6 20  1  0
  6 26  1  0
  7 24  4  0
  8 15  4  0
  8 24  4  0
  9 14  4  0
  9 21  4  0
 10 12  4  0
 10 27  4  0
 11 12  4  0
 11 23  4  0
 13 23  4  0
 13 27  4  0
 14 20  4  0
 15 22  4  0
 16 18  4  0
 16 25  2  0
 16 28  4  0
 21 28  4  0
 24 27  1  0
M  END
$$$$

 Created by Python create_sdf_string function

 28 31  0  0  0  0  0  0  0  0999 V2000
   -1.0054  -13.0622   19.1198 C   0  0  0  0  0  0  0  0  0  0  0  0
    3.1478   -8.5360   28.5161 C   0  0  0  0  0  0  0  0  0  0  0  0
    0.5798   -7.1906   27.9330 C   0  0  0  0  0  0  0  0  0  0  0  0
    0.3978   -5.1561   26.6955 C   0  0  0  0  0  0  0  0  0  0  0  0
    2.3063  -10.0533   30.0125 C   0  0  0  0  0  0  0  0  0  0  0  0
    1.8591   -6.8254   27.4685 N   0  0  0  0  0  0  0  0  0  0  0  0
   -0.2167  -12.1055   18.5568 C   0  0  0  0  0  0  0  0  0  0  0  0
   -2.0661  -10.6994   18.1916 C   0  0  0  0  0  0  0  0  0  0  0  0
    5.2703   -7.5691   27.1123 C   0  0  0  0  0  0  0  0  0  0  0  0
    1.6204   -9.9887   17.2935 C   0  0  0  0  0  0  0  0  0  0  0  0
    1.8931   -7.9265   16.2047 C   0  0  0  0  0  0  0  0  0  0  0  0
    2.4396   -9.0801   16.7132 C   0  0  0  0  0  0  0  0  0  0  0  0
   -0.2575   -8.6234   16.8582 C   0  0  0  0  0  0  0  0  0  0  0  0
    4.0614   -7.0367   27.0106 N   0  0  0  0  0  0  0  0  0  0  0  0
   -2.9133  -11.6279   18.7578 C   0  0  0  0  0  0  0  0  0  0  0  0
    4.5688  -10.1291   29.5758 C   0  0  0  0  0  0  0  0  0  0  0  0
    2.1008   -9.0410   29.1852 N   0  0  0  0  0  0  0  0  0  0  0  0
    3.4829  -10.5697   30.2091 N   0  0  0  0  0  0  0  0  0  0  0  0
   -0.3363   -6.1172   27.5628 C   0  0  0  0  0  0  0  0  0  0  0  0
    3.0331   -7.4400   27.6362 C   0  0  0  0  0  0  0  0  0  0  0  0
    5.4553   -8.5933   27.9644 C   0  0  0  0  0  0  0  0  0  0  0  0
   -2.3870  -12.8440   19.2512 C   0  0  0  0  0  0  0  0  0  0  0  0
    0.5331   -7.6964   16.2751 C   0  0  0  0  0  0  0  0  0  0  0  0
   -0.6740  -10.8737   18.0482 C   0  0  0  0  0  0  0  0  0  0  0  0
    5.6751  -10.5870   29.7637 O   0  0  0  0  0  0  0  0  0  0  0  0
    1.7612   -5.6483   26.7172 C   0  0  0  0  0  0  0  0  0  0  0  0
    0.2221   -9.8326   17.4055 C   0  0  0  0  0  0  0  0  0  0  0  0
    4.3850   -9.0730   28.6745 C   0  0  0  0  0  0  0  0  0  0  0  0
  1  7  4  0
  1 22  4  0
  2 17  4  0
  2 20  4  0
  2 28  4  0
  3  6  1  0
  3 19  1  0
  4 19  1  0
  4 26  1  0
  5 17  4  0
  5 18  4  0
  6 20  1  0
  6 26  1  0
  7 24  4  0
  8 15  4  0
  8 24  4  0
  9 14  4  0
  9 21  4  0
 10 12  4  0
 10 27  4  0
 11 12  4  0
 11 23  4  0
 13 23  4  0
 13 27  4  0
 14 20  4  0
 15 22  4  0
 16 18  4  0
 16 25  2  0
 16 28  4  0
 21 28  4  0
 24 27  1  0
M  END
$$$$

 Created by Python create_sdf_string function

 28 31  0  0  0  0  0  0  0  0999 V2000
   -1.0054  -13.0622   19.1198 C   0  0  0  0  0  0  0  0  0  0  0  0
    3.1478   -8.5360   28.5161 C   0  0  0  0  0  0  0  0  0  0  0  0
    0.5798   -7.1906   27.9330 C   0  0  0  0  0  0  0  0  0  0  0  0
    0.3978   -5.1561   26.6955 C   0  0  0  0  0  0  0  0  0  0  0  0
    2.3063  -10.0533   30.0125 C   0  0  0  0  0  0  0  0  0  0  0  0
    1.8591   -6.8254   27.4685 N   0  0  0  0  0  0  0  0  0  0  0  0
   -0.2167  -12.1055   18.5568 C   0  0  0  0  0  0  0  0  0  0  0  0
   -2.0661  -10.6994   18.1916 C   0  0  0  0  0  0  0  0  0  0  0  0
    5.2703   -7.5691   27.1123 C   0  0  0  0  0  0  0  0  0  0  0  0
    1.6204   -9.9887   17.2935 C   0  0  0  0  0  0  0  0  0  0  0  0
    1.8931   -7.9265   16.2047 C   0  0  0  0  0  0  0  0  0  0  0  0
    2.4396   -9.0801   16.7132 C   0  0  0  0  0  0  0  0  0  0  0  0
   -0.2575   -8.6234   16.8582 C   0  0  0  0  0  0  0  0  0  0  0  0
    4.0614   -7.0367   27.0106 N   0  0  0  0  0  0  0  0  0  0  0  0
   -2.9133  -11.6279   18.7578 C   0  0  0  0  0  0  0  0  0  0  0  0
    4.5688  -10.1291   29.5758 C   0  0  0  0  0  0  0  0  0  0  0  0
    2.1008   -9.0410   29.1852 N   0  0  0  0  0  0  0  0  0  0  0  0
    3.4829  -10.5697   30.2091 N   0  0  0  0  0  0  0  0  0  0  0  0
   -0.3363   -6.1172   27.5628 C   0  0  0  0  0  0  0  0  0  0  0  0
    3.0331   -7.4400   27.6362 C   0  0  0  0  0  0  0  0  0  0  0  0
    5.4553   -8.5933   27.9644 C   0  0  0  0  0  0  0  0  0  0  0  0
   -2.3870  -12.8440   19.2512 C   0  0  0  0  0  0  0  0  0  0  0  0
    0.5331   -7.6964   16.2751 C   0  0  0  0  0  0  0  0  0  0  0  0
   -0.6740  -10.8737   18.0482 C   0  0  0  0  0  0  0  0  0  0  0  0
    5.6751  -10.5870   29.7637 O   0  0  0  0  0  0  0  0  0  0  0  0
    1.7612   -5.6483   26.7172 C   0  0  0  0  0  0  0  0  0  0  0  0
    0.2221   -9.8326   17.4055 C   0  0  0  0  0  0  0  0  0  0  0  0
    4.3850   -9.0730   28.6745 C   0  0  0  0  0  0  0  0  0  0  0  0
  1  7  4  0
  1 22  4  0
  2 17  4  0
  2 20  4  0
  2 28  4  0
  3  6  1  0
  3 19  1  0
  4 19  1  0
  4 26  1  0
  5 17  4  0
  5 18  4  0
  6 20  1  0
  6 26  1  0
  7 24  4  0
  8 15  4  0
  8 24  4  0
  9 14  4  0
  9 21  4  0
 10 12  4  0
 10 27  4  0
 11 12  4  0
 11 23  4  0
 13 23  4  0
 13 27  4  0
 14 20  4  0
 15 22  4  0
 16 18  4  0
 16 25  2  0
 16 28  4  0
 21 28  4  0
 24 27  1  0
M  END
$$$$

 Created by Python create_sdf_string function

 28 31  0  0  0  0  0  0  0  0999 V2000
   -1.0054  -13.0622   19.1198 C   0  0  0  0  0  0  0  0  0  0  0  0
    3.1478   -8.5360   28.5161 C   0  0  0  0  0  0  0  0  0  0  0  0
    0.5798   -7.1906   27.9330 C   0  0  0  0  0  0  0  0  0  0  0  0
    0.3978   -5.1561   26.6955 C   0  0  0  0  0  0  0  0  0  0  0  0
    2.3063  -10.0533   30.0125 C   0  0  0  0  0  0  0  0  0  0  0  0
    1.8591   -6.8254   27.4685 N   0  0  0  0  0  0  0  0  0  0  0  0
   -0.2167  -12.1055   18.5568 C   0  0  0  0  0  0  0  0  0  0  0  0
   -2.0661  -10.6994   18.1916 C   0  0  0  0  0  0  0  0  0  0  0  0
    5.2703   -7.5691   27.1123 C   0  0  0  0  0  0  0  0  0  0  0  0
    1.6204   -9.9887   17.2935 C   0  0  0  0  0  0  0  0  0  0  0  0
    1.8931   -7.9265   16.2047 C   0  0  0  0  0  0  0  0  0  0  0  0
    2.4396   -9.0801   16.7132 C   0  0  0  0  0  0  0  0  0  0  0  0
   -0.2575   -8.6234   16.8582 C   0  0  0  0  0  0  0  0  0  0  0  0
    4.0614   -7.0367   27.0106 N   0  0  0  0  0  0  0  0  0  0  0  0
   -2.9133  -11.6279   18.7578 C   0  0  0  0  0  0  0  0  0  0  0  0
    4.5688  -10.1291   29.5758 C   0  0  0  0  0  0  0  0  0  0  0  0
    2.1008   -9.0410   29.1852 N   0  0  0  0  0  0  0  0  0  0  0  0
    3.4829  -10.5697   30.2091 N   0  0  0  0  0  0  0  0  0  0  0  0
   -0.3363   -6.1172   27.5628 C   0  0  0  0  0  0  0  0  0  0  0  0
    3.0331   -7.4400   27.6362 C   0  0  0  0  0  0  0  0  0  0  0  0
    5.4553   -8.5933   27.9644 C   0  0  0  0  0  0  0  0  0  0  0  0
   -2.3870  -12.8440   19.2512 C   0  0  0  0  0  0  0  0  0  0  0  0
    0.5331   -7.6964   16.2751 C   0  0  0  0  0  0  0  0  0  0  0  0
   -0.6740  -10.8737   18.0482 C   0  0  0  0  0  0  0  0  0  0  0  0
    5.6751  -10.5870   29.7637 O   0  0  0  0  0  0  0  0  0  0  0  0
    1.7612   -5.6483   26.7172 C   0  0  0  0  0  0  0  0  0  0  0  0
    0.2221   -9.8326   17.4055 C   0  0  0  0  0  0  0  0  0  0  0  0
    4.3850   -9.0730   28.6745 C   0  0  0  0  0  0  0  0  0  0  0  0
  1  7  4  0
  1 22  4  0
  2 17  4  0
  2 20  4  0
  2 28  4  0
  3  6  1  0
  3 19  1  0
  4 19  1  0
  4 26  1  0
  5 17  4  0
  5 18  4  0
  6 20  1  0
  6 26  1  0
  7 24  4  0
  8 15  4  0
  8 24  4  0
  9 14  4  0
  9 21  4  0
 10 12  4  0
 10 27  4  0
 11 12  4  0
 11 23  4  0
 13 23  4  0
 13 27  4  0
 14 20  4  0
 15 22  4  0
 16 18  4  0
 16 25  2  0
 16 28  4  0
 21 28  4  0
 24 27  1  0
M  END
$$$$

 Created by Python create_sdf_string function

 28 31  0  0  0  0  0  0  0  0999 V2000
   -1.0054  -13.0622   19.1198 C   0  0  0  0  0  0  0  0  0  0  0  0
    3.1478   -8.5360   28.5161 C   0  0  0  0  0  0  0  0  0  0  0  0
    0.5798   -7.1906   27.9330 C   0  0  0  0  0  0  0  0  0  0  0  0
    0.3978   -5.1561   26.6955 C   0  0  0  0  0  0  0  0  0  0  0  0
    2.3063  -10.0533   30.0125 C   0  0  0  0  0  0  0  0  0  0  0  0
    1.8591   -6.8254   27.4685 N   0  0  0  0  0  0  0  0  0  0  0  0
   -0.2167  -12.1055   18.5568 C   0  0  0  0  0  0  0  0  0  0  0  0
   -2.0661  -10.6994   18.1916 C   0  0  0  0  0  0  0  0  0  0  0  0
    5.2703   -7.5691   27.1123 C   0  0  0  0  0  0  0  0  0  0  0  0
    1.6204   -9.9887   17.2935 C   0  0  0  0  0  0  0  0  0  0  0  0
    1.8931   -7.9265   16.2047 C   0  0  0  0  0  0  0  0  0  0  0  0
    2.4396   -9.0801   16.7132 C   0  0  0  0  0  0  0  0  0  0  0  0
   -0.2575   -8.6234   16.8582 C   0  0  0  0  0  0  0  0  0  0  0  0
    4.0614   -7.0367   27.0106 N   0  0  0  0  0  0  0  0  0  0  0  0
   -2.9133  -11.6279   18.7578 C   0  0  0  0  0  0  0  0  0  0  0  0
    4.5688  -10.1291   29.5758 C   0  0  0  0  0  0  0  0  0  0  0  0
    2.1008   -9.0410   29.1852 N   0  0  0  0  0  0  0  0  0  0  0  0
    3.4829  -10.5697   30.2091 N   0  0  0  0  0  0  0  0  0  0  0  0
   -0.3363   -6.1172   27.5628 C   0  0  0  0  0  0  0  0  0  0  0  0
    3.0331   -7.4400   27.6362 C   0  0  0  0  0  0  0  0  0  0  0  0
    5.4553   -8.5933   27.9644 C   0  0  0  0  0  0  0  0  0  0  0  0
   -2.3870  -12.8440   19.2512 C   0  0  0  0  0  0  0  0  0  0  0  0
    0.5331   -7.6964   16.2751 C   0  0  0  0  0  0  0  0  0  0  0  0
   -0.6740  -10.8737   18.0482 C   0  0  0  0  0  0  0  0  0  0  0  0
    5.6751  -10.5870   29.7637 O   0  0  0  0  0  0  0  0  0  0  0  0
    1.7612   -5.6483   26.7172 C   0  0  0  0  0  0  0  0  0  0  0  0
    0.2221   -9.8326   17.4055 C   0  0  0  0  0  0  0  0  0  0  0  0
    4.3850   -9.0730   28.6745 C   0  0  0  0  0  0  0  0  0  0  0  0
  1  7  4  0
  1 22  4  0
  2 17  4  0
  2 20  4  0
  2 28  4  0
  3  6  1  0
  3 19  1  0
  4 19  1  0
  4 26  1  0
  5 17  4  0
  5 18  4  0
  6 20  1  0
  6 26  1  0
  7 24  4  0
  8 15  4  0
  8 24  4  0
  9 14  4  0
  9 21  4  0
 10 12  4  0
 10 27  4  0
 11 12  4  0
 11 23  4  0
 13 23  4  0
 13 27  4  0
 14 20  4  0
 15 22  4  0
 16 18  4  0
 16 25  2  0
 16 28  4  0
 21 28  4  0
 24 27  1  0
M  END
$$$$

 Created by Python create_sdf_string function

 28 31  0  0  0  0  0  0  0  0999 V2000
   -1.0054  -13.0622   19.1198 C   0  0  0  0  0  0  0  0  0  0  0  0
    3.1478   -8.5360   28.5161 C   0  0  0  0  0  0  0  0  0  0  0  0
    0.5798   -7.1906   27.9330 C   0  0  0  0  0  0  0  0  0  0  0  0
    0.3978   -5.1561   26.6955 C   0  0  0  0  0  0  0  0  0  0  0  0
    2.3063  -10.0533   30.0125 C   0  0  0  0  0  0  0  0  0  0  0  0
    1.8591   -6.8254   27.4685 N   0  0  0  0  0  0  0  0  0  0  0  0
   -0.2167  -12.1055   18.5568 C   0  0  0  0  0  0  0  0  0  0  0  0
   -2.0661  -10.6994   18.1916 C   0  0  0  0  0  0  0  0  0  0  0  0
    5.2703   -7.5691   27.1123 C   0  0  0  0  0  0  0  0  0  0  0  0
    1.6204   -9.9887   17.2935 C   0  0  0  0  0  0  0  0  0  0  0  0
    1.8931   -7.9265   16.2047 C   0  0  0  0  0  0  0  0  0  0  0  0
    2.4396   -9.0801   16.7132 C   0  0  0  0  0  0  0  0  0  0  0  0
   -0.2575   -8.6234   16.8582 C   0  0  0  0  0  0  0  0  0  0  0  0
    4.0614   -7.0367   27.0106 N   0  0  0  0  0  0  0  0  0  0  0  0
   -2.9133  -11.6279   18.7578 C   0  0  0  0  0  0  0  0  0  0  0  0
    4.5688  -10.1291   29.5758 C   0  0  0  0  0  0  0  0  0  0  0  0
    2.1008   -9.0410   29.1852 N   0  0  0  0  0  0  0  0  0  0  0  0
    3.4829  -10.5697   30.2091 N   0  0  0  0  0  0  0  0  0  0  0  0
   -0.3363   -6.1172   27.5628 C   0  0  0  0  0  0  0  0  0  0  0  0
    3.0331   -7.4400   27.6362 C   0  0  0  0  0  0  0  0  0  0  0  0
    5.4553   -8.5933   27.9644 C   0  0  0  0  0  0  0  0  0  0  0  0
   -2.3870  -12.8440   19.2512 C   0  0  0  0  0  0  0  0  0  0  0  0
    0.5331   -7.6964   16.2751 C   0  0  0  0  0  0  0  0  0  0  0  0
   -0.6740  -10.8737   18.0482 C   0  0  0  0  0  0  0  0  0  0  0  0
    5.6751  -10.5870   29.7637 O   0  0  0  0  0  0  0  0  0  0  0  0
    1.7612   -5.6483   26.7172 C   0  0  0  0  0  0  0  0  0  0  0  0
    0.2221   -9.8326   17.4055 C   0  0  0  0  0  0  0  0  0  0  0  0
    4.3850   -9.0730   28.6745 C   0  0  0  0  0  0  0  0  0  0  0  0
  1  7  4  0
  1 22  4  0
  2 17  4  0
  2 20  4  0
  2 28  4  0
  3  6  1  0
  3 19  1  0
  4 19  1  0
  4 26  1  0
  5 17  4  0
  5 18  4  0
  6 20  1  0
  6 26  1  0
  7 24  4  0
  8 15  4  0
  8 24  4  0
  9 14  4  0
  9 21  4  0
 10 12  4  0
 10 27  4  0
 11 12  4  0
 11 23  4  0
 13 23  4  0
 13 27  4  0
 14 20  4  0
 15 22  4  0
 16 18  4  0
 16 25  2  0
 16 28  4  0
 21 28  4  0
 24 27  1  0
M  END
$$$$

 Created by Python create_sdf_string function

 28 31  0  0  0  0  0  0  0  0999 V2000
   -1.0054  -13.0622   19.1198 C   0  0  0  0  0  0  0  0  0  0  0  0
    3.1478   -8.5360   28.5161 C   0  0  0  0  0  0  0  0  0  0  0  0
    0.5798   -7.1906   27.9330 C   0  0  0  0  0  0  0  0  0  0  0  0
    0.3978   -5.1561   26.6955 C   0  0  0  0  0  0  0  0  0  0  0  0
    2.3063  -10.0533   30.0125 C   0  0  0  0  0  0  0  0  0  0  0  0
    1.8591   -6.8254   27.4685 N   0  0  0  0  0  0  0  0  0  0  0  0
   -0.2167  -12.1055   18.5568 C   0  0  0  0  0  0  0  0  0  0  0  0
   -2.0661  -10.6994   18.1916 C   0  0  0  0  0  0  0  0  0  0  0  0
    5.2703   -7.5691   27.1123 C   0  0  0  0  0  0  0  0  0  0  0  0
    1.6204   -9.9887   17.2935 C   0  0  0  0  0  0  0  0  0  0  0  0
    1.8931   -7.9265   16.2047 C   0  0  0  0  0  0  0  0  0  0  0  0
    2.4396   -9.0801   16.7132 C   0  0  0  0  0  0  0  0  0  0  0  0
   -0.2575   -8.6234   16.8582 C   0  0  0  0  0  0  0  0  0  0  0  0
    4.0614   -7.0367   27.0106 N   0  0  0  0  0  0  0  0  0  0  0  0
   -2.9133  -11.6279   18.7578 C   0  0  0  0  0  0  0  0  0  0  0  0
    4.5688  -10.1291   29.5758 C   0  0  0  0  0  0  0  0  0  0  0  0
    2.1008   -9.0410   29.1852 N   0  0  0  0  0  0  0  0  0  0  0  0
    3.4829  -10.5697   30.2091 N   0  0  0  0  0  0  0  0  0  0  0  0
   -0.3363   -6.1172   27.5628 C   0  0  0  0  0  0  0  0  0  0  0  0
    3.0331   -7.4400   27.6362 C   0  0  0  0  0  0  0  0  0  0  0  0
    5.4553   -8.5933   27.9644 C   0  0  0  0  0  0  0  0  0  0  0  0
   -2.3870  -12.8440   19.2512 C   0  0  0  0  0  0  0  0  0  0  0  0
    0.5331   -7.6964   16.2751 C   0  0  0  0  0  0  0  0  0  0  0  0
   -0.6740  -10.8737   18.0482 C   0  0  0  0  0  0  0  0  0  0  0  0
    5.6751  -10.5870   29.7637 O   0  0  0  0  0  0  0  0  0  0  0  0
    1.7612   -5.6483   26.7172 C   0  0  0  0  0  0  0  0  0  0  0  0
    0.2221   -9.8326   17.4055 C   0  0  0  0  0  0  0  0  0  0  0  0
    4.3850   -9.0730   28.6745 C   0  0  0  0  0  0  0  0  0  0  0  0
  1  7  4  0
  1 22  4  0
  2 17  4  0
  2 20  4  0
  2 28  4  0
  3  6  1  0
  3 19  1  0
  4 19  1  0
  4 26  1  0
  5 17  4  0
  5 18  4  0
  6 20  1  0
  6 26  1  0
  7 24  4  0
  8 15  4  0
  8 24  4  0
  9 14  4  0
  9 21  4  0
 10 12  4  0
 10 27  4  0
 11 12  4  0
 11 23  4  0
 13 23  4  0
 13 27  4  0
 14 20  4  0
 15 22  4  0
 16 18  4  0
 16 25  2  0
 16 28  4  0
 21 28  4  0
 24 27  1  0
M  END
$$$$

 Created by Python create_sdf_string function

 28 31  0  0  0  0  0  0  0  0999 V2000
   -1.0054  -13.0622   19.1198 C   0  0  0  0  0  0  0  0  0  0  0  0
    3.1478   -8.5360   28.5161 C   0  0  0  0  0  0  0  0  0  0  0  0
    0.5798   -7.1906   27.9330 C   0  0  0  0  0  0  0  0  0  0  0  0
    0.3978   -5.1561   26.6955 C   0  0  0  0  0  0  0  0  0  0  0  0
    2.3063  -10.0533   30.0125 C   0  0  0  0  0  0  0  0  0  0  0  0
    1.8591   -6.8254   27.4685 N   0  0  0  0  0  0  0  0  0  0  0  0
   -0.2167  -12.1055   18.5568 C   0  0  0  0  0  0  0  0  0  0  0  0
   -2.0661  -10.6994   18.1916 C   0  0  0  0  0  0  0  0  0  0  0  0
    5.2703   -7.5691   27.1123 C   0  0  0  0  0  0  0  0  0  0  0  0
    1.6204   -9.9887   17.2935 C   0  0  0  0  0  0  0  0  0  0  0  0
    1.8931   -7.9265   16.2047 C   0  0  0  0  0  0  0  0  0  0  0  0
    2.4396   -9.0801   16.7132 C   0  0  0  0  0  0  0  0  0  0  0  0
   -0.2575   -8.6234   16.8582 C   0  0  0  0  0  0  0  0  0  0  0  0
    4.0614   -7.0367   27.0106 N   0  0  0  0  0  0  0  0  0  0  0  0
   -2.9133  -11.6279   18.7578 C   0  0  0  0  0  0  0  0  0  0  0  0
    4.5688  -10.1291   29.5758 C   0  0  0  0  0  0  0  0  0  0  0  0
    2.1008   -9.0410   29.1852 N   0  0  0  0  0  0  0  0  0  0  0  0
    3.4829  -10.5697   30.2091 N   0  0  0  0  0  0  0  0  0  0  0  0
   -0.3363   -6.1172   27.5628 C   0  0  0  0  0  0  0  0  0  0  0  0
    3.0331   -7.4400   27.6362 C   0  0  0  0  0  0  0  0  0  0  0  0
    5.4553   -8.5933   27.9644 C   0  0  0  0  0  0  0  0  0  0  0  0
   -2.3870  -12.8440   19.2512 C   0  0  0  0  0  0  0  0  0  0  0  0
    0.5331   -7.6964   16.2751 C   0  0  0  0  0  0  0  0  0  0  0  0
   -0.6740  -10.8737   18.0482 C   0  0  0  0  0  0  0  0  0  0  0  0
    5.6751  -10.5870   29.7637 O   0  0  0  0  0  0  0  0  0  0  0  0
    1.7612   -5.6483   26.7172 C   0  0  0  0  0  0  0  0  0  0  0  0
    0.2221   -9.8326   17.4055 C   0  0  0  0  0  0  0  0  0  0  0  0
    4.3850   -9.0730   28.6745 C   0  0  0  0  0  0  0  0  0  0  0  0
  1  7  4  0
  1 22  4  0
  2 17  4  0
  2 20  4  0
  2 28  4  0
  3  6  1  0
  3 19  1  0
  4 19  1  0
  4 26  1  0
  5 17  4  0
  5 18  4  0
  6 20  1  0
  6 26  1  0
  7 24  4  0
  8 15  4  0
  8 24  4  0
  9 14  4  0
  9 21  4  0
 10 12  4  0
 10 27  4  0
 11 12  4  0
 11 23  4  0
 13 23  4  0
 13 27  4  0
 14 20  4  0
 15 22  4  0
 16 18  4  0
 16 25  2  0
 16 28  4  0
 21 28  4  0
 24 27  1  0
M  END
$$$$

 Created by Python create_sdf_string function

 28 31  0  0  0  0  0  0  0  0999 V2000
   -1.0054  -13.0622   19.1198 C   0  0  0  0  0  0  0  0  0  0  0  0
    3.1478   -8.5360   28.5161 C   0  0  0  0  0  0  0  0  0  0  0  0
    0.5798   -7.1906   27.9330 C   0  0  0  0  0  0  0  0  0  0  0  0
    0.3978   -5.1561   26.6955 C   0  0  0  0  0  0  0  0  0  0  0  0
    2.3063  -10.0533   30.0125 C   0  0  0  0  0  0  0  0  0  0  0  0
    1.8591   -6.8254   27.4685 N   0  0  0  0  0  0  0  0  0  0  0  0
   -0.2167  -12.1055   18.5568 C   0  0  0  0  0  0  0  0  0  0  0  0
   -2.0661  -10.6994   18.1916 C   0  0  0  0  0  0  0  0  0  0  0  0
    5.2703   -7.5691   27.1123 C   0  0  0  0  0  0  0  0  0  0  0  0
    1.6204   -9.9887   17.2935 C   0  0  0  0  0  0  0  0  0  0  0  0
    1.8931   -7.9265   16.2047 C   0  0  0  0  0  0  0  0  0  0  0  0
    2.4396   -9.0801   16.7132 C   0  0  0  0  0  0  0  0  0  0  0  0
   -0.2575   -8.6234   16.8582 C   0  0  0  0  0  0  0  0  0  0  0  0
    4.0614   -7.0367   27.0106 N   0  0  0  0  0  0  0  0  0  0  0  0
   -2.9133  -11.6279   18.7578 C   0  0  0  0  0  0  0  0  0  0  0  0
    4.5688  -10.1291   29.5758 C   0  0  0  0  0  0  0  0  0  0  0  0
    2.1008   -9.0410   29.1852 N   0  0  0  0  0  0  0  0  0  0  0  0
    3.4829  -10.5697   30.2091 N   0  0  0  0  0  0  0  0  0  0  0  0
   -0.3363   -6.1172   27.5628 C   0  0  0  0  0  0  0  0  0  0  0  0
    3.0331   -7.4400   27.6362 C   0  0  0  0  0  0  0  0  0  0  0  0
    5.4553   -8.5933   27.9644 C   0  0  0  0  0  0  0  0  0  0  0  0
   -2.3870  -12.8440   19.2512 C   0  0  0  0  0  0  0  0  0  0  0  0
    0.5331   -7.6964   16.2751 C   0  0  0  0  0  0  0  0  0  0  0  0
   -0.6740  -10.8737   18.0482 C   0  0  0  0  0  0  0  0  0  0  0  0
    5.6751  -10.5870   29.7637 O   0  0  0  0  0  0  0  0  0  0  0  0
    1.7612   -5.6483   26.7172 C   0  0  0  0  0  0  0  0  0  0  0  0
    0.2221   -9.8326   17.4055 C   0  0  0  0  0  0  0  0  0  0  0  0
    4.3850   -9.0730   28.6745 C   0  0  0  0  0  0  0  0  0  0  0  0
  1  7  4  0
  1 22  4  0
  2 17  4  0
  2 20  4  0
  2 28  4  0
  3  6  1  0
  3 19  1  0
  4 19  1  0
  4 26  1  0
  5 17  4  0
  5 18  4  0
  6 20  1  0
  6 26  1  0
  7 24  4  0
  8 15  4  0
  8 24  4  0
  9 14  4  0
  9 21  4  0
 10 12  4  0
 10 27  4  0
 11 12  4  0
 11 23  4  0
 13 23  4  0
 13 27  4  0
 14 20  4  0
 15 22  4  0
 16 18  4  0
 16 25  2  0
 16 28  4  0
 21 28  4  0
 24 27  1  0
M  END
$$$$

 Created by Python create_sdf_string function

 28 31  0  0  0  0  0  0  0  0999 V2000
   -1.0054  -13.0622   19.1198 C   0  0  0  0  0  0  0  0  0  0  0  0
    3.1478   -8.5360   28.5161 C   0  0  0  0  0  0  0  0  0  0  0  0
    0.5798   -7.1906   27.9330 C   0  0  0  0  0  0  0  0  0  0  0  0
    0.3978   -5.1561   26.6955 C   0  0  0  0  0  0  0  0  0  0  0  0
    2.3063  -10.0533   30.0125 C   0  0  0  0  0  0  0  0  0  0  0  0
    1.8591   -6.8254   27.4685 N   0  0  0  0  0  0  0  0  0  0  0  0
   -0.2167  -12.1055   18.5568 C   0  0  0  0  0  0  0  0  0  0  0  0
   -2.0661  -10.6994   18.1916 C   0  0  0  0  0  0  0  0  0  0  0  0
    5.2703   -7.5691   27.1123 C   0  0  0  0  0  0  0  0  0  0  0  0
    1.6204   -9.9887   17.2935 C   0  0  0  0  0  0  0  0  0  0  0  0
    1.8931   -7.9265   16.2047 C   0  0  0  0  0  0  0  0  0  0  0  0
    2.4396   -9.0801   16.7132 C   0  0  0  0  0  0  0  0  0  0  0  0
   -0.2575   -8.6234   16.8582 C   0  0  0  0  0  0  0  0  0  0  0  0
    4.0614   -7.0367   27.0106 N   0  0  0  0  0  0  0  0  0  0  0  0
   -2.9133  -11.6279   18.7578 C   0  0  0  0  0  0  0  0  0  0  0  0
    4.5688  -10.1291   29.5758 C   0  0  0  0  0  0  0  0  0  0  0  0
    2.1008   -9.0410   29.1852 N   0  0  0  0  0  0  0  0  0  0  0  0
    3.4829  -10.5697   30.2091 N   0  0  0  0  0  0  0  0  0  0  0  0
   -0.3363   -6.1172   27.5628 C   0  0  0  0  0  0  0  0  0  0  0  0
    3.0331   -7.4400   27.6362 C   0  0  0  0  0  0  0  0  0  0  0  0
    5.4553   -8.5933   27.9644 C   0  0  0  0  0  0  0  0  0  0  0  0
   -2.3870  -12.8440   19.2512 C   0  0  0  0  0  0  0  0  0  0  0  0
    0.5331   -7.6964   16.2751 C   0  0  0  0  0  0  0  0  0  0  0  0
   -0.6740  -10.8737   18.0482 C   0  0  0  0  0  0  0  0  0  0  0  0
    5.6751  -10.5870   29.7637 O   0  0  0  0  0  0  0  0  0  0  0  0
    1.7612   -5.6483   26.7172 C   0  0  0  0  0  0  0  0  0  0  0  0
    0.2221   -9.8326   17.4055 C   0  0  0  0  0  0  0  0  0  0  0  0
    4.3850   -9.0730   28.6745 C   0  0  0  0  0  0  0  0  0  0  0  0
  1  7  4  0
  1 22  4  0
  2 17  4  0
  2 20  4  0
  2 28  4  0
  3  6  1  0
  3 19  1  0
  4 19  1  0
  4 26  1  0
  5 17  4  0
  5 18  4  0
  6 20  1  0
  6 26  1  0
  7 24  4  0
  8 15  4  0
  8 24  4  0
  9 14  4  0
  9 21  4  0
 10 12  4  0
 10 27  4  0
 11 12  4  0
 11 23  4  0
 13 23  4  0
 13 27  4  0
 14 20  4  0
 15 22  4  0
 16 18  4  0
 16 25  2  0
 16 28  4  0
 21 28  4  0
 24 27  1  0
M  END
$$$$

 Created by Python create_sdf_string function

 28 31  0  0  0  0  0  0  0  0999 V2000
   -1.0054  -13.0622   19.1198 C   0  0  0  0  0  0  0  0  0  0  0  0
    3.1478   -8.5360   28.5161 C   0  0  0  0  0  0  0  0  0  0  0  0
    0.5798   -7.1906   27.9330 C   0  0  0  0  0  0  0  0  0  0  0  0
    0.3978   -5.1561   26.6955 C   0  0  0  0  0  0  0  0  0  0  0  0
    2.3063  -10.0533   30.0125 C   0  0  0  0  0  0  0  0  0  0  0  0
    1.8591   -6.8254   27.4685 N   0  0  0  0  0  0  0  0  0  0  0  0
   -0.2167  -12.1055   18.5568 C   0  0  0  0  0  0  0  0  0  0  0  0
   -2.0661  -10.6994   18.1916 C   0  0  0  0  0  0  0  0  0  0  0  0
    5.2703   -7.5691   27.1123 C   0  0  0  0  0  0  0  0  0  0  0  0
    1.6204   -9.9887   17.2935 C   0  0  0  0  0  0  0  0  0  0  0  0
    1.8931   -7.9265   16.2047 C   0  0  0  0  0  0  0  0  0  0  0  0
    2.4396   -9.0801   16.7132 C   0  0  0  0  0  0  0  0  0  0  0  0
   -0.2575   -8.6234   16.8582 C   0  0  0  0  0  0  0  0  0  0  0  0
    4.0614   -7.0367   27.0106 N   0  0  0  0  0  0  0  0  0  0  0  0
   -2.9133  -11.6279   18.7578 C   0  0  0  0  0  0  0  0  0  0  0  0
    4.5688  -10.1291   29.5758 C   0  0  0  0  0  0  0  0  0  0  0  0
    2.1008   -9.0410   29.1852 N   0  0  0  0  0  0  0  0  0  0  0  0
    3.4829  -10.5697   30.2091 N   0  0  0  0  0  0  0  0  0  0  0  0
   -0.3363   -6.1172   27.5628 C   0  0  0  0  0  0  0  0  0  0  0  0
    3.0331   -7.4400   27.6362 C   0  0  0  0  0  0  0  0  0  0  0  0
    5.4553   -8.5933   27.9644 C   0  0  0  0  0  0  0  0  0  0  0  0
   -2.3870  -12.8440   19.2512 C   0  0  0  0  0  0  0  0  0  0  0  0
    0.5331   -7.6964   16.2751 C   0  0  0  0  0  0  0  0  0  0  0  0
   -0.6740  -10.8737   18.0482 C   0  0  0  0  0  0  0  0  0  0  0  0
    5.6751  -10.5870   29.7637 O   0  0  0  0  0  0  0  0  0  0  0  0
    1.7612   -5.6483   26.7172 C   0  0  0  0  0  0  0  0  0  0  0  0
    0.2221   -9.8326   17.4055 C   0  0  0  0  0  0  0  0  0  0  0  0
    4.3850   -9.0730   28.6745 C   0  0  0  0  0  0  0  0  0  0  0  0
  1  7  4  0
  1 22  4  0
  2 17  4  0
  2 20  4  0
  2 28  4  0
  3  6  1  0
  3 19  1  0
  4 19  1  0
  4 26  1  0
  5 17  4  0
  5 18  4  0
  6 20  1  0
  6 26  1  0
  7 24  4  0
  8 15  4  0
  8 24  4  0
  9 14  4  0
  9 21  4  0
 10 12  4  0
 10 27  4  0
 11 12  4  0
 11 23  4  0
 13 23  4  0
 13 27  4  0
 14 20  4  0
 15 22  4  0
 16 18  4  0
 16 25  2  0
 16 28  4  0
 21 28  4  0
 24 27  1  0
M  END
$$$$

 Created by Python create_sdf_string function

 28 31  0  0  0  0  0  0  0  0999 V2000
   -1.0054  -13.0622   19.1198 C   0  0  0  0  0  0  0  0  0  0  0  0
    3.1478   -8.5360   28.5161 C   0  0  0  0  0  0  0  0  0  0  0  0
    0.5798   -7.1906   27.9330 C   0  0  0  0  0  0  0  0  0  0  0  0
    0.3978   -5.1561   26.6955 C   0  0  0  0  0  0  0  0  0  0  0  0
    2.3063  -10.0533   30.0125 C   0  0  0  0  0  0  0  0  0  0  0  0
    1.8591   -6.8254   27.4685 N   0  0  0  0  0  0  0  0  0  0  0  0
   -0.2167  -12.1055   18.5568 C   0  0  0  0  0  0  0  0  0  0  0  0
   -2.0661  -10.6994   18.1916 C   0  0  0  0  0  0  0  0  0  0  0  0
    5.2703   -7.5691   27.1123 C   0  0  0  0  0  0  0  0  0  0  0  0
    1.6204   -9.9887   17.2935 C   0  0  0  0  0  0  0  0  0  0  0  0
    1.8931   -7.9265   16.2047 C   0  0  0  0  0  0  0  0  0  0  0  0
    2.4396   -9.0801   16.7132 C   0  0  0  0  0  0  0  0  0  0  0  0
   -0.2575   -8.6234   16.8582 C   0  0  0  0  0  0  0  0  0  0  0  0
    4.0614   -7.0367   27.0106 N   0  0  0  0  0  0  0  0  0  0  0  0
   -2.9133  -11.6279   18.7578 C   0  0  0  0  0  0  0  0  0  0  0  0
    4.5688  -10.1291   29.5758 C   0  0  0  0  0  0  0  0  0  0  0  0
    2.1008   -9.0410   29.1852 N   0  0  0  0  0  0  0  0  0  0  0  0
    3.4829  -10.5697   30.2091 N   0  0  0  0  0  0  0  0  0  0  0  0
   -0.3363   -6.1172   27.5628 C   0  0  0  0  0  0  0  0  0  0  0  0
    3.0331   -7.4400   27.6362 C   0  0  0  0  0  0  0  0  0  0  0  0
    5.4553   -8.5933   27.9644 C   0  0  0  0  0  0  0  0  0  0  0  0
   -2.3870  -12.8440   19.2512 C   0  0  0  0  0  0  0  0  0  0  0  0
    0.5331   -7.6964   16.2751 C   0  0  0  0  0  0  0  0  0  0  0  0
   -0.6740  -10.8737   18.0482 C   0  0  0  0  0  0  0  0  0  0  0  0
    5.6751  -10.5870   29.7637 O   0  0  0  0  0  0  0  0  0  0  0  0
    1.7612   -5.6483   26.7172 C   0  0  0  0  0  0  0  0  0  0  0  0
    0.2221   -9.8326   17.4055 C   0  0  0  0  0  0  0  0  0  0  0  0
    4.3850   -9.0730   28.6745 C   0  0  0  0  0  0  0  0  0  0  0  0
  1  7  4  0
  1 22  4  0
  2 17  4  0
  2 20  4  0
  2 28  4  0
  3  6  1  0
  3 19  1  0
  4 19  1  0
  4 26  1  0
  5 17  4  0
  5 18  4  0
  6 20  1  0
  6 26  1  0
  7 24  4  0
  8 15  4  0
  8 24  4  0
  9 14  4  0
  9 21  4  0
 10 12  4  0
 10 27  4  0
 11 12  4  0
 11 23  4  0
 13 23  4  0
 13 27  4  0
 14 20  4  0
 15 22  4  0
 16 18  4  0
 16 25  2  0
 16 28  4  0
 21 28  4  0
 24 27  1  0
M  END
$$$$

 Created by Python create_sdf_string function

 28 31  0  0  0  0  0  0  0  0999 V2000
   -1.0054  -13.0622   19.1198 C   0  0  0  0  0  0  0  0  0  0  0  0
    3.1478   -8.5360   28.5161 C   0  0  0  0  0  0  0  0  0  0  0  0
    0.5798   -7.1906   27.9330 C   0  0  0  0  0  0  0  0  0  0  0  0
    0.3978   -5.1561   26.6955 C   0  0  0  0  0  0  0  0  0  0  0  0
    2.3063  -10.0533   30.0125 C   0  0  0  0  0  0  0  0  0  0  0  0
    1.8591   -6.8254   27.4685 N   0  0  0  0  0  0  0  0  0  0  0  0
   -0.2167  -12.1055   18.5568 C   0  0  0  0  0  0  0  0  0  0  0  0
   -2.0661  -10.6994   18.1916 C   0  0  0  0  0  0  0  0  0  0  0  0
    5.2703   -7.5691   27.1123 C   0  0  0  0  0  0  0  0  0  0  0  0
    1.6204   -9.9887   17.2935 C   0  0  0  0  0  0  0  0  0  0  0  0
    1.8931   -7.9265   16.2047 C   0  0  0  0  0  0  0  0  0  0  0  0
    2.4396   -9.0801   16.7132 C   0  0  0  0  0  0  0  0  0  0  0  0
   -0.2575   -8.6234   16.8582 C   0  0  0  0  0  0  0  0  0  0  0  0
    4.0614   -7.0367   27.0106 N   0  0  0  0  0  0  0  0  0  0  0  0
   -2.9133  -11.6279   18.7578 C   0  0  0  0  0  0  0  0  0  0  0  0
    4.5688  -10.1291   29.5758 C   0  0  0  0  0  0  0  0  0  0  0  0
    2.1008   -9.0410   29.1852 N   0  0  0  0  0  0  0  0  0  0  0  0
    3.4829  -10.5697   30.2091 N   0  0  0  0  0  0  0  0  0  0  0  0
   -0.3363   -6.1172   27.5628 C   0  0  0  0  0  0  0  0  0  0  0  0
    3.0331   -7.4400   27.6362 C   0  0  0  0  0  0  0  0  0  0  0  0
    5.4553   -8.5933   27.9644 C   0  0  0  0  0  0  0  0  0  0  0  0
   -2.3870  -12.8440   19.2512 C   0  0  0  0  0  0  0  0  0  0  0  0
    0.5331   -7.6964   16.2751 C   0  0  0  0  0  0  0  0  0  0  0  0
   -0.6740  -10.8737   18.0482 C   0  0  0  0  0  0  0  0  0  0  0  0
    5.6751  -10.5870   29.7637 O   0  0  0  0  0  0  0  0  0  0  0  0
    1.7612   -5.6483   26.7172 C   0  0  0  0  0  0  0  0  0  0  0  0
    0.2221   -9.8326   17.4055 C   0  0  0  0  0  0  0  0  0  0  0  0
    4.3850   -9.0730   28.6745 C   0  0  0  0  0  0  0  0  0  0  0  0
  1  7  4  0
  1 22  4  0
  2 17  4  0
  2 20  4  0
  2 28  4  0
  3  6  1  0
  3 19  1  0
  4 19  1  0
  4 26  1  0
  5 17  4  0
  5 18  4  0
  6 20  1  0
  6 26  1  0
  7 24  4  0
  8 15  4  0
  8 24  4  0
  9 14  4  0
  9 21  4  0
 10 12  4  0
 10 27  4  0
 11 12  4  0
 11 23  4  0
 13 23  4  0
 13 27  4  0
 14 20  4  0
 15 22  4  0
 16 18  4  0
 16 25  2  0
 16 28  4  0
 21 28  4  0
 24 27  1  0
M  END
$$$$

 Created by Python create_sdf_string function

 28 31  0  0  0  0  0  0  0  0999 V2000
   -1.0054  -13.0622   19.1198 C   0  0  0  0  0  0  0  0  0  0  0  0
    3.1478   -8.5360   28.5161 C   0  0  0  0  0  0  0  0  0  0  0  0
    0.5798   -7.1906   27.9330 C   0  0  0  0  0  0  0  0  0  0  0  0
    0.3978   -5.1561   26.6955 C   0  0  0  0  0  0  0  0  0  0  0  0
    2.3063  -10.0533   30.0125 C   0  0  0  0  0  0  0  0  0  0  0  0
    1.8591   -6.8254   27.4685 N   0  0  0  0  0  0  0  0  0  0  0  0
   -0.2167  -12.1055   18.5568 C   0  0  0  0  0  0  0  0  0  0  0  0
   -2.0661  -10.6994   18.1916 C   0  0  0  0  0  0  0  0  0  0  0  0
    5.2703   -7.5691   27.1123 C   0  0  0  0  0  0  0  0  0  0  0  0
    1.6204   -9.9887   17.2935 C   0  0  0  0  0  0  0  0  0  0  0  0
    1.8931   -7.9265   16.2047 C   0  0  0  0  0  0  0  0  0  0  0  0
    2.4396   -9.0801   16.7132 C   0  0  0  0  0  0  0  0  0  0  0  0
   -0.2575   -8.6234   16.8582 C   0  0  0  0  0  0  0  0  0  0  0  0
    4.0614   -7.0367   27.0106 N   0  0  0  0  0  0  0  0  0  0  0  0
   -2.9133  -11.6279   18.7578 C   0  0  0  0  0  0  0  0  0  0  0  0
    4.5688  -10.1291   29.5758 C   0  0  0  0  0  0  0  0  0  0  0  0
    2.1008   -9.0410   29.1852 N   0  0  0  0  0  0  0  0  0  0  0  0
    3.4829  -10.5697   30.2091 N   0  0  0  0  0  0  0  0  0  0  0  0
   -0.3363   -6.1172   27.5628 C   0  0  0  0  0  0  0  0  0  0  0  0
    3.0331   -7.4400   27.6362 C   0  0  0  0  0  0  0  0  0  0  0  0
    5.4553   -8.5933   27.9644 C   0  0  0  0  0  0  0  0  0  0  0  0
   -2.3870  -12.8440   19.2512 C   0  0  0  0  0  0  0  0  0  0  0  0
    0.5331   -7.6964   16.2751 C   0  0  0  0  0  0  0  0  0  0  0  0
   -0.6740  -10.8737   18.0482 C   0  0  0  0  0  0  0  0  0  0  0  0
    5.6751  -10.5870   29.7637 O   0  0  0  0  0  0  0  0  0  0  0  0
    1.7612   -5.6483   26.7172 C   0  0  0  0  0  0  0  0  0  0  0  0
    0.2221   -9.8326   17.4055 C   0  0  0  0  0  0  0  0  0  0  0  0
    4.3850   -9.0730   28.6745 C   0  0  0  0  0  0  0  0  0  0  0  0
  1  7  4  0
  1 22  4  0
  2 17  4  0
  2 20  4  0
  2 28  4  0
  3  6  1  0
  3 19  1  0
  4 19  1  0
  4 26  1  0
  5 17  4  0
  5 18  4  0
  6 20  1  0
  6 26  1  0
  7 24  4  0
  8 15  4  0
  8 24  4  0
  9 14  4  0
  9 21  4  0
 10 12  4  0
 10 27  4  0
 11 12  4  0
 11 23  4  0
 13 23  4  0
 13 27  4  0
 14 20  4  0
 15 22  4  0
 16 18  4  0
 16 25  2  0
 16 28  4  0
 21 28  4  0
 24 27  1  0
M  END
$$$$

 Created by Python create_sdf_string function

 28 31  0  0  0  0  0  0  0  0999 V2000
   -1.0054  -13.0622   19.1198 C   0  0  0  0  0  0  0  0  0  0  0  0
    3.1478   -8.5360   28.5161 C   0  0  0  0  0  0  0  0  0  0  0  0
    0.5798   -7.1906   27.9330 C   0  0  0  0  0  0  0  0  0  0  0  0
    0.3978   -5.1561   26.6955 C   0  0  0  0  0  0  0  0  0  0  0  0
    2.3063  -10.0533   30.0125 C   0  0  0  0  0  0  0  0  0  0  0  0
    1.8591   -6.8254   27.4685 N   0  0  0  0  0  0  0  0  0  0  0  0
   -0.2167  -12.1055   18.5568 C   0  0  0  0  0  0  0  0  0  0  0  0
   -2.0661  -10.6994   18.1916 C   0  0  0  0  0  0  0  0  0  0  0  0
    5.2703   -7.5691   27.1123 C   0  0  0  0  0  0  0  0  0  0  0  0
    1.6204   -9.9887   17.2935 C   0  0  0  0  0  0  0  0  0  0  0  0
    1.8931   -7.9265   16.2047 C   0  0  0  0  0  0  0  0  0  0  0  0
    2.4396   -9.0801   16.7132 C   0  0  0  0  0  0  0  0  0  0  0  0
   -0.2575   -8.6234   16.8582 C   0  0  0  0  0  0  0  0  0  0  0  0
    4.0614   -7.0367   27.0106 N   0  0  0  0  0  0  0  0  0  0  0  0
   -2.9133  -11.6279   18.7578 C   0  0  0  0  0  0  0  0  0  0  0  0
    4.5688  -10.1291   29.5758 C   0  0  0  0  0  0  0  0  0  0  0  0
    2.1008   -9.0410   29.1852 N   0  0  0  0  0  0  0  0  0  0  0  0
    3.4829  -10.5697   30.2091 N   0  0  0  0  0  0  0  0  0  0  0  0
   -0.3363   -6.1172   27.5628 C   0  0  0  0  0  0  0  0  0  0  0  0
    3.0331   -7.4400   27.6362 C   0  0  0  0  0  0  0  0  0  0  0  0
    5.4553   -8.5933   27.9644 C   0  0  0  0  0  0  0  0  0  0  0  0
   -2.3870  -12.8440   19.2512 C   0  0  0  0  0  0  0  0  0  0  0  0
    0.5331   -7.6964   16.2751 C   0  0  0  0  0  0  0  0  0  0  0  0
   -0.6740  -10.8737   18.0482 C   0  0  0  0  0  0  0  0  0  0  0  0
    5.6751  -10.5870   29.7637 O   0  0  0  0  0  0  0  0  0  0  0  0
    1.7612   -5.6483   26.7172 C   0  0  0  0  0  0  0  0  0  0  0  0
    0.2221   -9.8326   17.4055 C   0  0  0  0  0  0  0  0  0  0  0  0
    4.3850   -9.0730   28.6745 C   0  0  0  0  0  0  0  0  0  0  0  0
  1  7  4  0
  1 22  4  0
  2 17  4  0
  2 20  4  0
  2 28  4  0
  3  6  1  0
  3 19  1  0
  4 19  1  0
  4 26  1  0
  5 17  4  0
  5 18  4  0
  6 20  1  0
  6 26  1  0
  7 24  4  0
  8 15  4  0
  8 24  4  0
  9 14  4  0
  9 21  4  0
 10 12  4  0
 10 27  4  0
 11 12  4  0
 11 23  4  0
 13 23  4  0
 13 27  4  0
 14 20  4  0
 15 22  4  0
 16 18  4  0
 16 25  2  0
 16 28  4  0
 21 28  4  0
 24 27  1  0
M  END
$$$$

 Created by Python create_sdf_string function

 28 31  0  0  0  0  0  0  0  0999 V2000
   -1.0054  -13.0622   19.1198 C   0  0  0  0  0  0  0  0  0  0  0  0
    3.1478   -8.5360   28.5161 C   0  0  0  0  0  0  0  0  0  0  0  0
    0.5798   -7.1906   27.9330 C   0  0  0  0  0  0  0  0  0  0  0  0
    0.3978   -5.1561   26.6955 C   0  0  0  0  0  0  0  0  0  0  0  0
    2.3063  -10.0533   30.0125 C   0  0  0  0  0  0  0  0  0  0  0  0
    1.8591   -6.8254   27.4685 N   0  0  0  0  0  0  0  0  0  0  0  0
   -0.2167  -12.1055   18.5568 C   0  0  0  0  0  0  0  0  0  0  0  0
   -2.0661  -10.6994   18.1916 C   0  0  0  0  0  0  0  0  0  0  0  0
    5.2703   -7.5691   27.1123 C   0  0  0  0  0  0  0  0  0  0  0  0
    1.6204   -9.9887   17.2935 C   0  0  0  0  0  0  0  0  0  0  0  0
    1.8931   -7.9265   16.2047 C   0  0  0  0  0  0  0  0  0  0  0  0
    2.4396   -9.0801   16.7132 C   0  0  0  0  0  0  0  0  0  0  0  0
   -0.2575   -8.6234   16.8582 C   0  0  0  0  0  0  0  0  0  0  0  0
    4.0614   -7.0367   27.0106 N   0  0  0  0  0  0  0  0  0  0  0  0
   -2.9133  -11.6279   18.7578 C   0  0  0  0  0  0  0  0  0  0  0  0
    4.5688  -10.1291   29.5758 C   0  0  0  0  0  0  0  0  0  0  0  0
    2.1008   -9.0410   29.1852 N   0  0  0  0  0  0  0  0  0  0  0  0
    3.4829  -10.5697   30.2091 N   0  0  0  0  0  0  0  0  0  0  0  0
   -0.3363   -6.1172   27.5628 C   0  0  0  0  0  0  0  0  0  0  0  0
    3.0331   -7.4400   27.6362 C   0  0  0  0  0  0  0  0  0  0  0  0
    5.4553   -8.5933   27.9644 C   0  0  0  0  0  0  0  0  0  0  0  0
   -2.3870  -12.8440   19.2512 C   0  0  0  0  0  0  0  0  0  0  0  0
    0.5331   -7.6964   16.2751 C   0  0  0  0  0  0  0  0  0  0  0  0
   -0.6740  -10.8737   18.0482 C   0  0  0  0  0  0  0  0  0  0  0  0
    5.6751  -10.5870   29.7637 O   0  0  0  0  0  0  0  0  0  0  0  0
    1.7612   -5.6483   26.7172 C   0  0  0  0  0  0  0  0  0  0  0  0
    0.2221   -9.8326   17.4055 C   0  0  0  0  0  0  0  0  0  0  0  0
    4.3850   -9.0730   28.6745 C   0  0  0  0  0  0  0  0  0  0  0  0
  1  7  4  0
  1 22  4  0
  2 17  4  0
  2 20  4  0
  2 28  4  0
  3  6  1  0
  3 19  1  0
  4 19  1  0
  4 26  1  0
  5 17  4  0
  5 18  4  0
  6 20  1  0
  6 26  1  0
  7 24  4  0
  8 15  4  0
  8 24  4  0
  9 14  4  0
  9 21  4  0
 10 12  4  0
 10 27  4  0
 11 12  4  0
 11 23  4  0
 13 23  4  0
 13 27  4  0
 14 20  4  0
 15 22  4  0
 16 18  4  0
 16 25  2  0
 16 28  4  0
 21 28  4  0
 24 27  1  0
M  END
$$$$

 Created by Python create_sdf_string function

 28 31  0  0  0  0  0  0  0  0999 V2000
   -1.0054  -13.0622   19.1198 C   0  0  0  0  0  0  0  0  0  0  0  0
    3.1478   -8.5360   28.5161 C   0  0  0  0  0  0  0  0  0  0  0  0
    0.5798   -7.1906   27.9330 C   0  0  0  0  0  0  0  0  0  0  0  0
    0.3978   -5.1561   26.6955 C   0  0  0  0  0  0  0  0  0  0  0  0
    2.3063  -10.0533   30.0125 C   0  0  0  0  0  0  0  0  0  0  0  0
    1.8591   -6.8254   27.4685 N   0  0  0  0  0  0  0  0  0  0  0  0
   -0.2167  -12.1055   18.5568 C   0  0  0  0  0  0  0  0  0  0  0  0
   -2.0661  -10.6994   18.1916 C   0  0  0  0  0  0  0  0  0  0  0  0
    5.2703   -7.5691   27.1123 C   0  0  0  0  0  0  0  0  0  0  0  0
    1.6204   -9.9887   17.2935 C   0  0  0  0  0  0  0  0  0  0  0  0
    1.8931   -7.9265   16.2047 C   0  0  0  0  0  0  0  0  0  0  0  0
    2.4396   -9.0801   16.7132 C   0  0  0  0  0  0  0  0  0  0  0  0
   -0.2575   -8.6234   16.8582 C   0  0  0  0  0  0  0  0  0  0  0  0
    4.0614   -7.0367   27.0106 N   0  0  0  0  0  0  0  0  0  0  0  0
   -2.9133  -11.6279   18.7578 C   0  0  0  0  0  0  0  0  0  0  0  0
    4.5688  -10.1291   29.5758 C   0  0  0  0  0  0  0  0  0  0  0  0
    2.1008   -9.0410   29.1852 N   0  0  0  0  0  0  0  0  0  0  0  0
    3.4829  -10.5697   30.2091 N   0  0  0  0  0  0  0  0  0  0  0  0
   -0.3363   -6.1172   27.5628 C   0  0  0  0  0  0  0  0  0  0  0  0
    3.0331   -7.4400   27.6362 C   0  0  0  0  0  0  0  0  0  0  0  0
    5.4553   -8.5933   27.9644 C   0  0  0  0  0  0  0  0  0  0  0  0
   -2.3870  -12.8440   19.2512 C   0  0  0  0  0  0  0  0  0  0  0  0
    0.5331   -7.6964   16.2751 C   0  0  0  0  0  0  0  0  0  0  0  0
   -0.6740  -10.8737   18.0482 C   0  0  0  0  0  0  0  0  0  0  0  0
    5.6751  -10.5870   29.7637 O   0  0  0  0  0  0  0  0  0  0  0  0
    1.7612   -5.6483   26.7172 C   0  0  0  0  0  0  0  0  0  0  0  0
    0.2221   -9.8326   17.4055 C   0  0  0  0  0  0  0  0  0  0  0  0
    4.3850   -9.0730   28.6745 C   0  0  0  0  0  0  0  0  0  0  0  0
  1  7  4  0
  1 22  4  0
  2 17  4  0
  2 20  4  0
  2 28  4  0
  3  6  1  0
  3 19  1  0
  4 19  1  0
  4 26  1  0
  5 17  4  0
  5 18  4  0
  6 20  1  0
  6 26  1  0
  7 24  4  0
  8 15  4  0
  8 24  4  0
  9 14  4  0
  9 21  4  0
 10 12  4  0
 10 27  4  0
 11 12  4  0
 11 23  4  0
 13 23  4  0
 13 27  4  0
 14 20  4  0
 15 22  4  0
 16 18  4  0
 16 25  2  0
 16 28  4  0
 21 28  4  0
 24 27  1  0
M  END
$$$$

 Created by Python create_sdf_string function

 28 31  0  0  0  0  0  0  0  0999 V2000
   -1.0054  -13.0622   19.1198 C   0  0  0  0  0  0  0  0  0  0  0  0
    3.1478   -8.5360   28.5161 C   0  0  0  0  0  0  0  0  0  0  0  0
    0.5798   -7.1906   27.9330 C   0  0  0  0  0  0  0  0  0  0  0  0
    0.3978   -5.1561   26.6955 C   0  0  0  0  0  0  0  0  0  0  0  0
    2.3063  -10.0533   30.0125 C   0  0  0  0  0  0  0  0  0  0  0  0
    1.8591   -6.8254   27.4685 N   0  0  0  0  0  0  0  0  0  0  0  0
   -0.2167  -12.1055   18.5568 C   0  0  0  0  0  0  0  0  0  0  0  0
   -2.0661  -10.6994   18.1916 C   0  0  0  0  0  0  0  0  0  0  0  0
    5.2703   -7.5691   27.1123 C   0  0  0  0  0  0  0  0  0  0  0  0
    1.6204   -9.9887   17.2935 C   0  0  0  0  0  0  0  0  0  0  0  0
    1.8931   -7.9265   16.2047 C   0  0  0  0  0  0  0  0  0  0  0  0
    2.4396   -9.0801   16.7132 C   0  0  0  0  0  0  0  0  0  0  0  0
   -0.2575   -8.6234   16.8582 C   0  0  0  0  0  0  0  0  0  0  0  0
    4.0614   -7.0367   27.0106 N   0  0  0  0  0  0  0  0  0  0  0  0
   -2.9133  -11.6279   18.7578 C   0  0  0  0  0  0  0  0  0  0  0  0
    4.5688  -10.1291   29.5758 C   0  0  0  0  0  0  0  0  0  0  0  0
    2.1008   -9.0410   29.1852 N   0  0  0  0  0  0  0  0  0  0  0  0
    3.4829  -10.5697   30.2091 N   0  0  0  0  0  0  0  0  0  0  0  0
   -0.3363   -6.1172   27.5628 C   0  0  0  0  0  0  0  0  0  0  0  0
    3.0331   -7.4400   27.6362 C   0  0  0  0  0  0  0  0  0  0  0  0
    5.4553   -8.5933   27.9644 C   0  0  0  0  0  0  0  0  0  0  0  0
   -2.3870  -12.8440   19.2512 C   0  0  0  0  0  0  0  0  0  0  0  0
    0.5331   -7.6964   16.2751 C   0  0  0  0  0  0  0  0  0  0  0  0
   -0.6740  -10.8737   18.0482 C   0  0  0  0  0  0  0  0  0  0  0  0
    5.6751  -10.5870   29.7637 O   0  0  0  0  0  0  0  0  0  0  0  0
    1.7612   -5.6483   26.7172 C   0  0  0  0  0  0  0  0  0  0  0  0
    0.2221   -9.8326   17.4055 C   0  0  0  0  0  0  0  0  0  0  0  0
    4.3850   -9.0730   28.6745 C   0  0  0  0  0  0  0  0  0  0  0  0
  1  7  4  0
  1 22  4  0
  2 17  4  0
  2 20  4  0
  2 28  4  0
  3  6  1  0
  3 19  1  0
  4 19  1  0
  4 26  1  0
  5 17  4  0
  5 18  4  0
  6 20  1  0
  6 26  1  0
  7 24  4  0
  8 15  4  0
  8 24  4  0
  9 14  4  0
  9 21  4  0
 10 12  4  0
 10 27  4  0
 11 12  4  0
 11 23  4  0
 13 23  4  0
 13 27  4  0
 14 20  4  0
 15 22  4  0
 16 18  4  0
 16 25  2  0
 16 28  4  0
 21 28  4  0
 24 27  1  0
M  END
$$$$

 Created by Python create_sdf_string function

 28 31  0  0  0  0  0  0  0  0999 V2000
   -1.0054  -13.0622   19.1198 C   0  0  0  0  0  0  0  0  0  0  0  0
    3.1478   -8.5360   28.5161 C   0  0  0  0  0  0  0  0  0  0  0  0
    0.5798   -7.1906   27.9330 C   0  0  0  0  0  0  0  0  0  0  0  0
    0.3978   -5.1561   26.6955 C   0  0  0  0  0  0  0  0  0  0  0  0
    2.3063  -10.0533   30.0125 C   0  0  0  0  0  0  0  0  0  0  0  0
    1.8591   -6.8254   27.4685 N   0  0  0  0  0  0  0  0  0  0  0  0
   -0.2167  -12.1055   18.5568 C   0  0  0  0  0  0  0  0  0  0  0  0
   -2.0661  -10.6994   18.1916 C   0  0  0  0  0  0  0  0  0  0  0  0
    5.2703   -7.5691   27.1123 C   0  0  0  0  0  0  0  0  0  0  0  0
    1.6204   -9.9887   17.2935 C   0  0  0  0  0  0  0  0  0  0  0  0
    1.8931   -7.9265   16.2047 C   0  0  0  0  0  0  0  0  0  0  0  0
    2.4396   -9.0801   16.7132 C   0  0  0  0  0  0  0  0  0  0  0  0
   -0.2575   -8.6234   16.8582 C   0  0  0  0  0  0  0  0  0  0  0  0
    4.0614   -7.0367   27.0106 N   0  0  0  0  0  0  0  0  0  0  0  0
   -2.9133  -11.6279   18.7578 C   0  0  0  0  0  0  0  0  0  0  0  0
    4.5688  -10.1291   29.5758 C   0  0  0  0  0  0  0  0  0  0  0  0
    2.1008   -9.0410   29.1852 N   0  0  0  0  0  0  0  0  0  0  0  0
    3.4829  -10.5697   30.2091 N   0  0  0  0  0  0  0  0  0  0  0  0
   -0.3363   -6.1172   27.5628 C   0  0  0  0  0  0  0  0  0  0  0  0
    3.0331   -7.4400   27.6362 C   0  0  0  0  0  0  0  0  0  0  0  0
    5.4553   -8.5933   27.9644 C   0  0  0  0  0  0  0  0  0  0  0  0
   -2.3870  -12.8440   19.2512 C   0  0  0  0  0  0  0  0  0  0  0  0
    0.5331   -7.6964   16.2751 C   0  0  0  0  0  0  0  0  0  0  0  0
   -0.6740  -10.8737   18.0482 C   0  0  0  0  0  0  0  0  0  0  0  0
    5.6751  -10.5870   29.7637 O   0  0  0  0  0  0  0  0  0  0  0  0
    1.7612   -5.6483   26.7172 C   0  0  0  0  0  0  0  0  0  0  0  0
    0.2221   -9.8326   17.4055 C   0  0  0  0  0  0  0  0  0  0  0  0
    4.3850   -9.0730   28.6745 C   0  0  0  0  0  0  0  0  0  0  0  0
  1  7  4  0
  1 22  4  0
  2 17  4  0
  2 20  4  0
  2 28  4  0
  3  6  1  0
  3 19  1  0
  4 19  1  0
  4 26  1  0
  5 17  4  0
  5 18  4  0
  6 20  1  0
  6 26  1  0
  7 24  4  0
  8 15  4  0
  8 24  4  0
  9 14  4  0
  9 21  4  0
 10 12  4  0
 10 27  4  0
 11 12  4  0
 11 23  4  0
 13 23  4  0
 13 27  4  0
 14 20  4  0
 15 22  4  0
 16 18  4  0
 16 25  2  0
 16 28  4  0
 21 28  4  0
 24 27  1  0
M  END
$$$$

 Created by Python create_sdf_string function

 28 31  0  0  0  0  0  0  0  0999 V2000
   -1.0054  -13.0622   19.1198 C   0  0  0  0  0  0  0  0  0  0  0  0
    3.1478   -8.5360   28.5161 C   0  0  0  0  0  0  0  0  0  0  0  0
    0.5798   -7.1906   27.9330 C   0  0  0  0  0  0  0  0  0  0  0  0
    0.3978   -5.1561   26.6955 C   0  0  0  0  0  0  0  0  0  0  0  0
    2.3063  -10.0533   30.0125 C   0  0  0  0  0  0  0  0  0  0  0  0
    1.8591   -6.8254   27.4685 N   0  0  0  0  0  0  0  0  0  0  0  0
   -0.2167  -12.1055   18.5568 C   0  0  0  0  0  0  0  0  0  0  0  0
   -2.0661  -10.6994   18.1916 C   0  0  0  0  0  0  0  0  0  0  0  0
    5.2703   -7.5691   27.1123 C   0  0  0  0  0  0  0  0  0  0  0  0
    1.6204   -9.9887   17.2935 C   0  0  0  0  0  0  0  0  0  0  0  0
    1.8931   -7.9265   16.2047 C   0  0  0  0  0  0  0  0  0  0  0  0
    2.4396   -9.0801   16.7132 C   0  0  0  0  0  0  0  0  0  0  0  0
   -0.2575   -8.6234   16.8582 C   0  0  0  0  0  0  0  0  0  0  0  0
    4.0614   -7.0367   27.0106 N   0  0  0  0  0  0  0  0  0  0  0  0
   -2.9133  -11.6279   18.7578 C   0  0  0  0  0  0  0  0  0  0  0  0
    4.5688  -10.1291   29.5758 C   0  0  0  0  0  0  0  0  0  0  0  0
    2.1008   -9.0410   29.1852 N   0  0  0  0  0  0  0  0  0  0  0  0
    3.4829  -10.5697   30.2091 N   0  0  0  0  0  0  0  0  0  0  0  0
   -0.3363   -6.1172   27.5628 C   0  0  0  0  0  0  0  0  0  0  0  0
    3.0331   -7.4400   27.6362 C   0  0  0  0  0  0  0  0  0  0  0  0
    5.4553   -8.5933   27.9644 C   0  0  0  0  0  0  0  0  0  0  0  0
   -2.3870  -12.8440   19.2512 C   0  0  0  0  0  0  0  0  0  0  0  0
    0.5331   -7.6964   16.2751 C   0  0  0  0  0  0  0  0  0  0  0  0
   -0.6740  -10.8737   18.0482 C   0  0  0  0  0  0  0  0  0  0  0  0
    5.6751  -10.5870   29.7637 O   0  0  0  0  0  0  0  0  0  0  0  0
    1.7612   -5.6483   26.7172 C   0  0  0  0  0  0  0  0  0  0  0  0
    0.2221   -9.8326   17.4055 C   0  0  0  0  0  0  0  0  0  0  0  0
    4.3850   -9.0730   28.6745 C   0  0  0  0  0  0  0  0  0  0  0  0
  1  7  4  0
  1 22  4  0
  2 17  4  0
  2 20  4  0
  2 28  4  0
  3  6  1  0
  3 19  1  0
  4 19  1  0
  4 26  1  0
  5 17  4  0
  5 18  4  0
  6 20  1  0
  6 26  1  0
  7 24  4  0
  8 15  4  0
  8 24  4  0
  9 14  4  0
  9 21  4  0
 10 12  4  0
 10 27  4  0
 11 12  4  0
 11 23  4  0
 13 23  4  0
 13 27  4  0
 14 20  4  0
 15 22  4  0
 16 18  4  0
 16 25  2  0
 16 28  4  0
 21 28  4  0
 24 27  1  0
M  END
$$$$

 Created by Python create_sdf_string function

 28 31  0  0  0  0  0  0  0  0999 V2000
   -1.0054  -13.0622   19.1198 C   0  0  0  0  0  0  0  0  0  0  0  0
    3.1478   -8.5360   28.5161 C   0  0  0  0  0  0  0  0  0  0  0  0
    0.5798   -7.1906   27.9330 C   0  0  0  0  0  0  0  0  0  0  0  0
    0.3978   -5.1561   26.6955 C   0  0  0  0  0  0  0  0  0  0  0  0
    2.3063  -10.0533   30.0125 C   0  0  0  0  0  0  0  0  0  0  0  0
    1.8591   -6.8254   27.4685 N   0  0  0  0  0  0  0  0  0  0  0  0
   -0.2167  -12.1055   18.5568 C   0  0  0  0  0  0  0  0  0  0  0  0
   -2.0661  -10.6994   18.1916 C   0  0  0  0  0  0  0  0  0  0  0  0
    5.2703   -7.5691   27.1123 C   0  0  0  0  0  0  0  0  0  0  0  0
    1.6204   -9.9887   17.2935 C   0  0  0  0  0  0  0  0  0  0  0  0
    1.8931   -7.9265   16.2047 C   0  0  0  0  0  0  0  0  0  0  0  0
    2.4396   -9.0801   16.7132 C   0  0  0  0  0  0  0  0  0  0  0  0
   -0.2575   -8.6234   16.8582 C   0  0  0  0  0  0  0  0  0  0  0  0
    4.0614   -7.0367   27.0106 N   0  0  0  0  0  0  0  0  0  0  0  0
   -2.9133  -11.6279   18.7578 C   0  0  0  0  0  0  0  0  0  0  0  0
    4.5688  -10.1291   29.5758 C   0  0  0  0  0  0  0  0  0  0  0  0
    2.1008   -9.0410   29.1852 N   0  0  0  0  0  0  0  0  0  0  0  0
    3.4829  -10.5697   30.2091 N   0  0  0  0  0  0  0  0  0  0  0  0
   -0.3363   -6.1172   27.5628 C   0  0  0  0  0  0  0  0  0  0  0  0
    3.0331   -7.4400   27.6362 C   0  0  0  0  0  0  0  0  0  0  0  0
    5.4553   -8.5933   27.9644 C   0  0  0  0  0  0  0  0  0  0  0  0
   -2.3870  -12.8440   19.2512 C   0  0  0  0  0  0  0  0  0  0  0  0
    0.5331   -7.6964   16.2751 C   0  0  0  0  0  0  0  0  0  0  0  0
   -0.6740  -10.8737   18.0482 C   0  0  0  0  0  0  0  0  0  0  0  0
    5.6751  -10.5870   29.7637 O   0  0  0  0  0  0  0  0  0  0  0  0
    1.7612   -5.6483   26.7172 C   0  0  0  0  0  0  0  0  0  0  0  0
    0.2221   -9.8326   17.4055 C   0  0  0  0  0  0  0  0  0  0  0  0
    4.3850   -9.0730   28.6745 C   0  0  0  0  0  0  0  0  0  0  0  0
  1  7  4  0
  1 22  4  0
  2 17  4  0
  2 20  4  0
  2 28  4  0
  3  6  1  0
  3 19  1  0
  4 19  1  0
  4 26  1  0
  5 17  4  0
  5 18  4  0
  6 20  1  0
  6 26  1  0
  7 24  4  0
  8 15  4  0
  8 24  4  0
  9 14  4  0
  9 21  4  0
 10 12  4  0
 10 27  4  0
 11 12  4  0
 11 23  4  0
 13 23  4  0
 13 27  4  0
 14 20  4  0
 15 22  4  0
 16 18  4  0
 16 25  2  0
 16 28  4  0
 21 28  4  0
 24 27  1  0
M  END
$$$$

 Created by Python create_sdf_string function

 28 31  0  0  0  0  0  0  0  0999 V2000
   -1.0054  -13.0622   19.1198 C   0  0  0  0  0  0  0  0  0  0  0  0
    3.1478   -8.5360   28.5161 C   0  0  0  0  0  0  0  0  0  0  0  0
    0.5798   -7.1906   27.9330 C   0  0  0  0  0  0  0  0  0  0  0  0
    0.3978   -5.1561   26.6955 C   0  0  0  0  0  0  0  0  0  0  0  0
    2.3063  -10.0533   30.0125 C   0  0  0  0  0  0  0  0  0  0  0  0
    1.8591   -6.8254   27.4685 N   0  0  0  0  0  0  0  0  0  0  0  0
   -0.2167  -12.1055   18.5568 C   0  0  0  0  0  0  0  0  0  0  0  0
   -2.0661  -10.6994   18.1916 C   0  0  0  0  0  0  0  0  0  0  0  0
    5.2703   -7.5691   27.1123 C   0  0  0  0  0  0  0  0  0  0  0  0
    1.6204   -9.9887   17.2935 C   0  0  0  0  0  0  0  0  0  0  0  0
    1.8931   -7.9265   16.2047 C   0  0  0  0  0  0  0  0  0  0  0  0
    2.4396   -9.0801   16.7132 C   0  0  0  0  0  0  0  0  0  0  0  0
   -0.2575   -8.6234   16.8582 C   0  0  0  0  0  0  0  0  0  0  0  0
    4.0614   -7.0367   27.0106 N   0  0  0  0  0  0  0  0  0  0  0  0
   -2.9133  -11.6279   18.7578 C   0  0  0  0  0  0  0  0  0  0  0  0
    4.5688  -10.1291   29.5758 C   0  0  0  0  0  0  0  0  0  0  0  0
    2.1008   -9.0410   29.1852 N   0  0  0  0  0  0  0  0  0  0  0  0
    3.4829  -10.5697   30.2091 N   0  0  0  0  0  0  0  0  0  0  0  0
   -0.3363   -6.1172   27.5628 C   0  0  0  0  0  0  0  0  0  0  0  0
    3.0331   -7.4400   27.6362 C   0  0  0  0  0  0  0  0  0  0  0  0
    5.4553   -8.5933   27.9644 C   0  0  0  0  0  0  0  0  0  0  0  0
   -2.3870  -12.8440   19.2512 C   0  0  0  0  0  0  0  0  0  0  0  0
    0.5331   -7.6964   16.2751 C   0  0  0  0  0  0  0  0  0  0  0  0
   -0.6740  -10.8737   18.0482 C   0  0  0  0  0  0  0  0  0  0  0  0
    5.6751  -10.5870   29.7637 O   0  0  0  0  0  0  0  0  0  0  0  0
    1.7612   -5.6483   26.7172 C   0  0  0  0  0  0  0  0  0  0  0  0
    0.2221   -9.8326   17.4055 C   0  0  0  0  0  0  0  0  0  0  0  0
    4.3850   -9.0730   28.6745 C   0  0  0  0  0  0  0  0  0  0  0  0
  1  7  4  0
  1 22  4  0
  2 17  4  0
  2 20  4  0
  2 28  4  0
  3  6  1  0
  3 19  1  0
  4 19  1  0
  4 26  1  0
  5 17  4  0
  5 18  4  0
  6 20  1  0
  6 26  1  0
  7 24  4  0
  8 15  4  0
  8 24  4  0
  9 14  4  0
  9 21  4  0
 10 12  4  0
 10 27  4  0
 11 12  4  0
 11 23  4  0
 13 23  4  0
 13 27  4  0
 14 20  4  0
 15 22  4  0
 16 18  4  0
 16 25  2  0
 16 28  4  0
 21 28  4  0
 24 27  1  0
M  END
$$$$

 Created by Python create_sdf_string function

 28 31  0  0  0  0  0  0  0  0999 V2000
   -1.0054  -13.0622   19.1198 C   0  0  0  0  0  0  0  0  0  0  0  0
    3.1478   -8.5360   28.5161 C   0  0  0  0  0  0  0  0  0  0  0  0
    0.5798   -7.1906   27.9330 C   0  0  0  0  0  0  0  0  0  0  0  0
    0.3978   -5.1561   26.6955 C   0  0  0  0  0  0  0  0  0  0  0  0
    2.3063  -10.0533   30.0125 C   0  0  0  0  0  0  0  0  0  0  0  0
    1.8591   -6.8254   27.4685 N   0  0  0  0  0  0  0  0  0  0  0  0
   -0.2167  -12.1055   18.5568 C   0  0  0  0  0  0  0  0  0  0  0  0
   -2.0661  -10.6994   18.1916 C   0  0  0  0  0  0  0  0  0  0  0  0
    5.2703   -7.5691   27.1123 C   0  0  0  0  0  0  0  0  0  0  0  0
    1.6204   -9.9887   17.2935 C   0  0  0  0  0  0  0  0  0  0  0  0
    1.8931   -7.9265   16.2047 C   0  0  0  0  0  0  0  0  0  0  0  0
    2.4396   -9.0801   16.7132 C   0  0  0  0  0  0  0  0  0  0  0  0
   -0.2575   -8.6234   16.8582 C   0  0  0  0  0  0  0  0  0  0  0  0
    4.0614   -7.0367   27.0106 N   0  0  0  0  0  0  0  0  0  0  0  0
   -2.9133  -11.6279   18.7578 C   0  0  0  0  0  0  0  0  0  0  0  0
    4.5688  -10.1291   29.5758 C   0  0  0  0  0  0  0  0  0  0  0  0
    2.1008   -9.0410   29.1852 N   0  0  0  0  0  0  0  0  0  0  0  0
    3.4829  -10.5697   30.2091 N   0  0  0  0  0  0  0  0  0  0  0  0
   -0.3363   -6.1172   27.5628 C   0  0  0  0  0  0  0  0  0  0  0  0
    3.0331   -7.4400   27.6362 C   0  0  0  0  0  0  0  0  0  0  0  0
    5.4553   -8.5933   27.9644 C   0  0  0  0  0  0  0  0  0  0  0  0
   -2.3870  -12.8440   19.2512 C   0  0  0  0  0  0  0  0  0  0  0  0
    0.5331   -7.6964   16.2751 C   0  0  0  0  0  0  0  0  0  0  0  0
   -0.6740  -10.8737   18.0482 C   0  0  0  0  0  0  0  0  0  0  0  0
    5.6751  -10.5870   29.7637 O   0  0  0  0  0  0  0  0  0  0  0  0
    1.7612   -5.6483   26.7172 C   0  0  0  0  0  0  0  0  0  0  0  0
    0.2221   -9.8326   17.4055 C   0  0  0  0  0  0  0  0  0  0  0  0
    4.3850   -9.0730   28.6745 C   0  0  0  0  0  0  0  0  0  0  0  0
  1  7  4  0
  1 22  4  0
  2 17  4  0
  2 20  4  0
  2 28  4  0
  3  6  1  0
  3 19  1  0
  4 19  1  0
  4 26  1  0
  5 17  4  0
  5 18  4  0
  6 20  1  0
  6 26  1  0
  7 24  4  0
  8 15  4  0
  8 24  4  0
  9 14  4  0
  9 21  4  0
 10 12  4  0
 10 27  4  0
 11 12  4  0
 11 23  4  0
 13 23  4  0
 13 27  4  0
 14 20  4  0
 15 22  4  0
 16 18  4  0
 16 25  2  0
 16 28  4  0
 21 28  4  0
 24 27  1  0
M  END
$$$$

 Created by Python create_sdf_string function

 28 31  0  0  0  0  0  0  0  0999 V2000
   -1.0054  -13.0622   19.1198 C   0  0  0  0  0  0  0  0  0  0  0  0
    3.1478   -8.5360   28.5161 C   0  0  0  0  0  0  0  0  0  0  0  0
    0.5798   -7.1906   27.9330 C   0  0  0  0  0  0  0  0  0  0  0  0
    0.3978   -5.1561   26.6955 C   0  0  0  0  0  0  0  0  0  0  0  0
    2.3063  -10.0533   30.0125 C   0  0  0  0  0  0  0  0  0  0  0  0
    1.8591   -6.8254   27.4685 N   0  0  0  0  0  0  0  0  0  0  0  0
   -0.2167  -12.1055   18.5568 C   0  0  0  0  0  0  0  0  0  0  0  0
   -2.0661  -10.6994   18.1916 C   0  0  0  0  0  0  0  0  0  0  0  0
    5.2703   -7.5691   27.1123 C   0  0  0  0  0  0  0  0  0  0  0  0
    1.6204   -9.9887   17.2935 C   0  0  0  0  0  0  0  0  0  0  0  0
    1.8931   -7.9265   16.2047 C   0  0  0  0  0  0  0  0  0  0  0  0
    2.4396   -9.0801   16.7132 C   0  0  0  0  0  0  0  0  0  0  0  0
   -0.2575   -8.6234   16.8582 C   0  0  0  0  0  0  0  0  0  0  0  0
    4.0614   -7.0367   27.0106 N   0  0  0  0  0  0  0  0  0  0  0  0
   -2.9133  -11.6279   18.7578 C   0  0  0  0  0  0  0  0  0  0  0  0
    4.5688  -10.1291   29.5758 C   0  0  0  0  0  0  0  0  0  0  0  0
    2.1008   -9.0410   29.1852 N   0  0  0  0  0  0  0  0  0  0  0  0
    3.4829  -10.5697   30.2091 N   0  0  0  0  0  0  0  0  0  0  0  0
   -0.3363   -6.1172   27.5628 C   0  0  0  0  0  0  0  0  0  0  0  0
    3.0331   -7.4400   27.6362 C   0  0  0  0  0  0  0  0  0  0  0  0
    5.4553   -8.5933   27.9644 C   0  0  0  0  0  0  0  0  0  0  0  0
   -2.3870  -12.8440   19.2512 C   0  0  0  0  0  0  0  0  0  0  0  0
    0.5331   -7.6964   16.2751 C   0  0  0  0  0  0  0  0  0  0  0  0
   -0.6740  -10.8737   18.0482 C   0  0  0  0  0  0  0  0  0  0  0  0
    5.6751  -10.5870   29.7637 O   0  0  0  0  0  0  0  0  0  0  0  0
    1.7612   -5.6483   26.7172 C   0  0  0  0  0  0  0  0  0  0  0  0
    0.2221   -9.8326   17.4055 C   0  0  0  0  0  0  0  0  0  0  0  0
    4.3850   -9.0730   28.6745 C   0  0  0  0  0  0  0  0  0  0  0  0
  1  7  4  0
  1 22  4  0
  2 17  4  0
  2 20  4  0
  2 28  4  0
  3  6  1  0
  3 19  1  0
  4 19  1  0
  4 26  1  0
  5 17  4  0
  5 18  4  0
  6 20  1  0
  6 26  1  0
  7 24  4  0
  8 15  4  0
  8 24  4  0
  9 14  4  0
  9 21  4  0
 10 12  4  0
 10 27  4  0
 11 12  4  0
 11 23  4  0
 13 23  4  0
 13 27  4  0
 14 20  4  0
 15 22  4  0
 16 18  4  0
 16 25  2  0
 16 28  4  0
 21 28  4  0
 24 27  1  0
M  END
$$$$

 Created by Python create_sdf_string function

 28 31  0  0  0  0  0  0  0  0999 V2000
   -1.0054  -13.0622   19.1198 C   0  0  0  0  0  0  0  0  0  0  0  0
    3.1478   -8.5360   28.5161 C   0  0  0  0  0  0  0  0  0  0  0  0
    0.5798   -7.1906   27.9330 C   0  0  0  0  0  0  0  0  0  0  0  0
    0.3978   -5.1561   26.6955 C   0  0  0  0  0  0  0  0  0  0  0  0
    2.3063  -10.0533   30.0125 C   0  0  0  0  0  0  0  0  0  0  0  0
    1.8591   -6.8254   27.4685 N   0  0  0  0  0  0  0  0  0  0  0  0
   -0.2167  -12.1055   18.5568 C   0  0  0  0  0  0  0  0  0  0  0  0
   -2.0661  -10.6994   18.1916 C   0  0  0  0  0  0  0  0  0  0  0  0
    5.2703   -7.5691   27.1123 C   0  0  0  0  0  0  0  0  0  0  0  0
    1.6204   -9.9887   17.2935 C   0  0  0  0  0  0  0  0  0  0  0  0
    1.8931   -7.9265   16.2047 C   0  0  0  0  0  0  0  0  0  0  0  0
    2.4396   -9.0801   16.7132 C   0  0  0  0  0  0  0  0  0  0  0  0
   -0.2575   -8.6234   16.8582 C   0  0  0  0  0  0  0  0  0  0  0  0
    4.0614   -7.0367   27.0106 N   0  0  0  0  0  0  0  0  0  0  0  0
   -2.9133  -11.6279   18.7578 C   0  0  0  0  0  0  0  0  0  0  0  0
    4.5688  -10.1291   29.5758 C   0  0  0  0  0  0  0  0  0  0  0  0
    2.1008   -9.0410   29.1852 N   0  0  0  0  0  0  0  0  0  0  0  0
    3.4829  -10.5697   30.2091 N   0  0  0  0  0  0  0  0  0  0  0  0
   -0.3363   -6.1172   27.5628 C   0  0  0  0  0  0  0  0  0  0  0  0
    3.0331   -7.4400   27.6362 C   0  0  0  0  0  0  0  0  0  0  0  0
    5.4553   -8.5933   27.9644 C   0  0  0  0  0  0  0  0  0  0  0  0
   -2.3870  -12.8440   19.2512 C   0  0  0  0  0  0  0  0  0  0  0  0
    0.5331   -7.6964   16.2751 C   0  0  0  0  0  0  0  0  0  0  0  0
   -0.6740  -10.8737   18.0482 C   0  0  0  0  0  0  0  0  0  0  0  0
    5.6751  -10.5870   29.7637 O   0  0  0  0  0  0  0  0  0  0  0  0
    1.7612   -5.6483   26.7172 C   0  0  0  0  0  0  0  0  0  0  0  0
    0.2221   -9.8326   17.4055 C   0  0  0  0  0  0  0  0  0  0  0  0
    4.3850   -9.0730   28.6745 C   0  0  0  0  0  0  0  0  0  0  0  0
  1  7  4  0
  1 22  4  0
  2 17  4  0
  2 20  4  0
  2 28  4  0
  3  6  1  0
  3 19  1  0
  4 19  1  0
  4 26  1  0
  5 17  4  0
  5 18  4  0
  6 20  1  0
  6 26  1  0
  7 24  4  0
  8 15  4  0
  8 24  4  0
  9 14  4  0
  9 21  4  0
 10 12  4  0
 10 27  4  0
 11 12  4  0
 11 23  4  0
 13 23  4  0
 13 27  4  0
 14 20  4  0
 15 22  4  0
 16 18  4  0
 16 25  2  0
 16 28  4  0
 21 28  4  0
 24 27  1  0
M  END
$$$$

 Created by Python create_sdf_string function

 28 31  0  0  0  0  0  0  0  0999 V2000
   -1.0054  -13.0622   19.1198 C   0  0  0  0  0  0  0  0  0  0  0  0
    3.1478   -8.5360   28.5161 C   0  0  0  0  0  0  0  0  0  0  0  0
    0.5798   -7.1906   27.9330 C   0  0  0  0  0  0  0  0  0  0  0  0
    0.3978   -5.1561   26.6955 C   0  0  0  0  0  0  0  0  0  0  0  0
    2.3063  -10.0533   30.0125 C   0  0  0  0  0  0  0  0  0  0  0  0
    1.8591   -6.8254   27.4685 N   0  0  0  0  0  0  0  0  0  0  0  0
   -0.2167  -12.1055   18.5568 C   0  0  0  0  0  0  0  0  0  0  0  0
   -2.0661  -10.6994   18.1916 C   0  0  0  0  0  0  0  0  0  0  0  0
    5.2703   -7.5691   27.1123 C   0  0  0  0  0  0  0  0  0  0  0  0
    1.6204   -9.9887   17.2935 C   0  0  0  0  0  0  0  0  0  0  0  0
    1.8931   -7.9265   16.2047 C   0  0  0  0  0  0  0  0  0  0  0  0
    2.4396   -9.0801   16.7132 C   0  0  0  0  0  0  0  0  0  0  0  0
   -0.2575   -8.6234   16.8582 C   0  0  0  0  0  0  0  0  0  0  0  0
    4.0614   -7.0367   27.0106 N   0  0  0  0  0  0  0  0  0  0  0  0
   -2.9133  -11.6279   18.7578 C   0  0  0  0  0  0  0  0  0  0  0  0
    4.5688  -10.1291   29.5758 C   0  0  0  0  0  0  0  0  0  0  0  0
    2.1008   -9.0410   29.1852 N   0  0  0  0  0  0  0  0  0  0  0  0
    3.4829  -10.5697   30.2091 N   0  0  0  0  0  0  0  0  0  0  0  0
   -0.3363   -6.1172   27.5628 C   0  0  0  0  0  0  0  0  0  0  0  0
    3.0331   -7.4400   27.6362 C   0  0  0  0  0  0  0  0  0  0  0  0
    5.4553   -8.5933   27.9644 C   0  0  0  0  0  0  0  0  0  0  0  0
   -2.3870  -12.8440   19.2512 C   0  0  0  0  0  0  0  0  0  0  0  0
    0.5331   -7.6964   16.2751 C   0  0  0  0  0  0  0  0  0  0  0  0
   -0.6740  -10.8737   18.0482 C   0  0  0  0  0  0  0  0  0  0  0  0
    5.6751  -10.5870   29.7637 O   0  0  0  0  0  0  0  0  0  0  0  0
    1.7612   -5.6483   26.7172 C   0  0  0  0  0  0  0  0  0  0  0  0
    0.2221   -9.8326   17.4055 C   0  0  0  0  0  0  0  0  0  0  0  0
    4.3850   -9.0730   28.6745 C   0  0  0  0  0  0  0  0  0  0  0  0
  1  7  4  0
  1 22  4  0
  2 17  4  0
  2 20  4  0
  2 28  4  0
  3  6  1  0
  3 19  1  0
  4 19  1  0
  4 26  1  0
  5 17  4  0
  5 18  4  0
  6 20  1  0
  6 26  1  0
  7 24  4  0
  8 15  4  0
  8 24  4  0
  9 14  4  0
  9 21  4  0
 10 12  4  0
 10 27  4  0
 11 12  4  0
 11 23  4  0
 13 23  4  0
 13 27  4  0
 14 20  4  0
 15 22  4  0
 16 18  4  0
 16 25  2  0
 16 28  4  0
 21 28  4  0
 24 27  1  0
M  END
$$$$

 Created by Python create_sdf_string function

 28 31  0  0  0  0  0  0  0  0999 V2000
   -1.0054  -13.0622   19.1198 C   0  0  0  0  0  0  0  0  0  0  0  0
    3.1478   -8.5360   28.5161 C   0  0  0  0  0  0  0  0  0  0  0  0
    0.5798   -7.1906   27.9330 C   0  0  0  0  0  0  0  0  0  0  0  0
    0.3978   -5.1561   26.6955 C   0  0  0  0  0  0  0  0  0  0  0  0
    2.3063  -10.0533   30.0125 C   0  0  0  0  0  0  0  0  0  0  0  0
    1.8591   -6.8254   27.4685 N   0  0  0  0  0  0  0  0  0  0  0  0
   -0.2167  -12.1055   18.5568 C   0  0  0  0  0  0  0  0  0  0  0  0
   -2.0661  -10.6994   18.1916 C   0  0  0  0  0  0  0  0  0  0  0  0
    5.2703   -7.5691   27.1123 C   0  0  0  0  0  0  0  0  0  0  0  0
    1.6204   -9.9887   17.2935 C   0  0  0  0  0  0  0  0  0  0  0  0
    1.8931   -7.9265   16.2047 C   0  0  0  0  0  0  0  0  0  0  0  0
    2.4396   -9.0801   16.7132 C   0  0  0  0  0  0  0  0  0  0  0  0
   -0.2575   -8.6234   16.8582 C   0  0  0  0  0  0  0  0  0  0  0  0
    4.0614   -7.0367   27.0106 N   0  0  0  0  0  0  0  0  0  0  0  0
   -2.9133  -11.6279   18.7578 C   0  0  0  0  0  0  0  0  0  0  0  0
    4.5688  -10.1291   29.5758 C   0  0  0  0  0  0  0  0  0  0  0  0
    2.1008   -9.0410   29.1852 N   0  0  0  0  0  0  0  0  0  0  0  0
    3.4829  -10.5697   30.2091 N   0  0  0  0  0  0  0  0  0  0  0  0
   -0.3363   -6.1172   27.5628 C   0  0  0  0  0  0  0  0  0  0  0  0
    3.0331   -7.4400   27.6362 C   0  0  0  0  0  0  0  0  0  0  0  0
    5.4553   -8.5933   27.9644 C   0  0  0  0  0  0  0  0  0  0  0  0
   -2.3870  -12.8440   19.2512 C   0  0  0  0  0  0  0  0  0  0  0  0
    0.5331   -7.6964   16.2751 C   0  0  0  0  0  0  0  0  0  0  0  0
   -0.6740  -10.8737   18.0482 C   0  0  0  0  0  0  0  0  0  0  0  0
    5.6751  -10.5870   29.7637 O   0  0  0  0  0  0  0  0  0  0  0  0
    1.7612   -5.6483   26.7172 C   0  0  0  0  0  0  0  0  0  0  0  0
    0.2221   -9.8326   17.4055 C   0  0  0  0  0  0  0  0  0  0  0  0
    4.3850   -9.0730   28.6745 C   0  0  0  0  0  0  0  0  0  0  0  0
  1  7  4  0
  1 22  4  0
  2 17  4  0
  2 20  4  0
  2 28  4  0
  3  6  1  0
  3 19  1  0
  4 19  1  0
  4 26  1  0
  5 17  4  0
  5 18  4  0
  6 20  1  0
  6 26  1  0
  7 24  4  0
  8 15  4  0
  8 24  4  0
  9 14  4  0
  9 21  4  0
 10 12  4  0
 10 27  4  0
 11 12  4  0
 11 23  4  0
 13 23  4  0
 13 27  4  0
 14 20  4  0
 15 22  4  0
 16 18  4  0
 16 25  2  0
 16 28  4  0
 21 28  4  0
 24 27  1  0
M  END
$$$$

 Created by Python create_sdf_string function

 28 31  0  0  0  0  0  0  0  0999 V2000
   -1.0054  -13.0622   19.1198 C   0  0  0  0  0  0  0  0  0  0  0  0
    3.1478   -8.5360   28.5161 C   0  0  0  0  0  0  0  0  0  0  0  0
    0.5798   -7.1906   27.9330 C   0  0  0  0  0  0  0  0  0  0  0  0
    0.3978   -5.1561   26.6955 C   0  0  0  0  0  0  0  0  0  0  0  0
    2.3063  -10.0533   30.0125 C   0  0  0  0  0  0  0  0  0  0  0  0
    1.8591   -6.8254   27.4685 N   0  0  0  0  0  0  0  0  0  0  0  0
   -0.2167  -12.1055   18.5568 C   0  0  0  0  0  0  0  0  0  0  0  0
   -2.0661  -10.6994   18.1916 C   0  0  0  0  0  0  0  0  0  0  0  0
    5.2703   -7.5691   27.1123 C   0  0  0  0  0  0  0  0  0  0  0  0
    1.6204   -9.9887   17.2935 C   0  0  0  0  0  0  0  0  0  0  0  0
    1.8931   -7.9265   16.2047 C   0  0  0  0  0  0  0  0  0  0  0  0
    2.4396   -9.0801   16.7132 C   0  0  0  0  0  0  0  0  0  0  0  0
   -0.2575   -8.6234   16.8582 C   0  0  0  0  0  0  0  0  0  0  0  0
    4.0614   -7.0367   27.0106 N   0  0  0  0  0  0  0  0  0  0  0  0
   -2.9133  -11.6279   18.7578 C   0  0  0  0  0  0  0  0  0  0  0  0
    4.5688  -10.1291   29.5758 C   0  0  0  0  0  0  0  0  0  0  0  0
    2.1008   -9.0410   29.1852 N   0  0  0  0  0  0  0  0  0  0  0  0
    3.4829  -10.5697   30.2091 N   0  0  0  0  0  0  0  0  0  0  0  0
   -0.3363   -6.1172   27.5628 C   0  0  0  0  0  0  0  0  0  0  0  0
    3.0331   -7.4400   27.6362 C   0  0  0  0  0  0  0  0  0  0  0  0
    5.4553   -8.5933   27.9644 C   0  0  0  0  0  0  0  0  0  0  0  0
   -2.3870  -12.8440   19.2512 C   0  0  0  0  0  0  0  0  0  0  0  0
    0.5331   -7.6964   16.2751 C   0  0  0  0  0  0  0  0  0  0  0  0
   -0.6740  -10.8737   18.0482 C   0  0  0  0  0  0  0  0  0  0  0  0
    5.6751  -10.5870   29.7637 O   0  0  0  0  0  0  0  0  0  0  0  0
    1.7612   -5.6483   26.7172 C   0  0  0  0  0  0  0  0  0  0  0  0
    0.2221   -9.8326   17.4055 C   0  0  0  0  0  0  0  0  0  0  0  0
    4.3850   -9.0730   28.6745 C   0  0  0  0  0  0  0  0  0  0  0  0
  1  7  4  0
  1 22  4  0
  2 17  4  0
  2 20  4  0
  2 28  4  0
  3  6  1  0
  3 19  1  0
  4 19  1  0
  4 26  1  0
  5 17  4  0
  5 18  4  0
  6 20  1  0
  6 26  1  0
  7 24  4  0
  8 15  4  0
  8 24  4  0
  9 14  4  0
  9 21  4  0
 10 12  4  0
 10 27  4  0
 11 12  4  0
 11 23  4  0
 13 23  4  0
 13 27  4  0
 14 20  4  0
 15 22  4  0
 16 18  4  0
 16 25  2  0
 16 28  4  0
 21 28  4  0
 24 27  1  0
M  END
$$$$

 Created by Python create_sdf_string function

 28 31  0  0  0  0  0  0  0  0999 V2000
   -1.0054  -13.0622   19.1198 C   0  0  0  0  0  0  0  0  0  0  0  0
    3.1478   -8.5360   28.5161 C   0  0  0  0  0  0  0  0  0  0  0  0
    0.5798   -7.1906   27.9330 C   0  0  0  0  0  0  0  0  0  0  0  0
    0.3978   -5.1561   26.6955 C   0  0  0  0  0  0  0  0  0  0  0  0
    2.3063  -10.0533   30.0125 C   0  0  0  0  0  0  0  0  0  0  0  0
    1.8591   -6.8254   27.4685 N   0  0  0  0  0  0  0  0  0  0  0  0
   -0.2167  -12.1055   18.5568 C   0  0  0  0  0  0  0  0  0  0  0  0
   -2.0661  -10.6994   18.1916 C   0  0  0  0  0  0  0  0  0  0  0  0
    5.2703   -7.5691   27.1123 C   0  0  0  0  0  0  0  0  0  0  0  0
    1.6204   -9.9887   17.2935 C   0  0  0  0  0  0  0  0  0  0  0  0
    1.8931   -7.9265   16.2047 C   0  0  0  0  0  0  0  0  0  0  0  0
    2.4396   -9.0801   16.7132 C   0  0  0  0  0  0  0  0  0  0  0  0
   -0.2575   -8.6234   16.8582 C   0  0  0  0  0  0  0  0  0  0  0  0
    4.0614   -7.0367   27.0106 N   0  0  0  0  0  0  0  0  0  0  0  0
   -2.9133  -11.6279   18.7578 C   0  0  0  0  0  0  0  0  0  0  0  0
    4.5688  -10.1291   29.5758 C   0  0  0  0  0  0  0  0  0  0  0  0
    2.1008   -9.0410   29.1852 N   0  0  0  0  0  0  0  0  0  0  0  0
    3.4829  -10.5697   30.2091 N   0  0  0  0  0  0  0  0  0  0  0  0
   -0.3363   -6.1172   27.5628 C   0  0  0  0  0  0  0  0  0  0  0  0
    3.0331   -7.4400   27.6362 C   0  0  0  0  0  0  0  0  0  0  0  0
    5.4553   -8.5933   27.9644 C   0  0  0  0  0  0  0  0  0  0  0  0
   -2.3870  -12.8440   19.2512 C   0  0  0  0  0  0  0  0  0  0  0  0
    0.5331   -7.6964   16.2751 C   0  0  0  0  0  0  0  0  0  0  0  0
   -0.6740  -10.8737   18.0482 C   0  0  0  0  0  0  0  0  0  0  0  0
    5.6751  -10.5870   29.7637 O   0  0  0  0  0  0  0  0  0  0  0  0
    1.7612   -5.6483   26.7172 C   0  0  0  0  0  0  0  0  0  0  0  0
    0.2221   -9.8326   17.4055 C   0  0  0  0  0  0  0  0  0  0  0  0
    4.3850   -9.0730   28.6745 C   0  0  0  0  0  0  0  0  0  0  0  0
  1  7  4  0
  1 22  4  0
  2 17  4  0
  2 20  4  0
  2 28  4  0
  3  6  1  0
  3 19  1  0
  4 19  1  0
  4 26  1  0
  5 17  4  0
  5 18  4  0
  6 20  1  0
  6 26  1  0
  7 24  4  0
  8 15  4  0
  8 24  4  0
  9 14  4  0
  9 21  4  0
 10 12  4  0
 10 27  4  0
 11 12  4  0
 11 23  4  0
 13 23  4  0
 13 27  4  0
 14 20  4  0
 15 22  4  0
 16 18  4  0
 16 25  2  0
 16 28  4  0
 21 28  4  0
 24 27  1  0
M  END
$$$$

 Created by Python create_sdf_string function

 28 31  0  0  0  0  0  0  0  0999 V2000
   -1.0054  -13.0622   19.1198 C   0  0  0  0  0  0  0  0  0  0  0  0
    3.1478   -8.5360   28.5161 C   0  0  0  0  0  0  0  0  0  0  0  0
    0.5798   -7.1906   27.9330 C   0  0  0  0  0  0  0  0  0  0  0  0
    0.3978   -5.1561   26.6955 C   0  0  0  0  0  0  0  0  0  0  0  0
    2.3063  -10.0533   30.0125 C   0  0  0  0  0  0  0  0  0  0  0  0
    1.8591   -6.8254   27.4685 N   0  0  0  0  0  0  0  0  0  0  0  0
   -0.2167  -12.1055   18.5568 C   0  0  0  0  0  0  0  0  0  0  0  0
   -2.0661  -10.6994   18.1916 C   0  0  0  0  0  0  0  0  0  0  0  0
    5.2703   -7.5691   27.1123 C   0  0  0  0  0  0  0  0  0  0  0  0
    1.6204   -9.9887   17.2935 C   0  0  0  0  0  0  0  0  0  0  0  0
    1.8931   -7.9265   16.2047 C   0  0  0  0  0  0  0  0  0  0  0  0
    2.4396   -9.0801   16.7132 C   0  0  0  0  0  0  0  0  0  0  0  0
   -0.2575   -8.6234   16.8582 C   0  0  0  0  0  0  0  0  0  0  0  0
    4.0614   -7.0367   27.0106 N   0  0  0  0  0  0  0  0  0  0  0  0
   -2.9133  -11.6279   18.7578 C   0  0  0  0  0  0  0  0  0  0  0  0
    4.5688  -10.1291   29.5758 C   0  0  0  0  0  0  0  0  0  0  0  0
    2.1008   -9.0410   29.1852 N   0  0  0  0  0  0  0  0  0  0  0  0
    3.4829  -10.5697   30.2091 N   0  0  0  0  0  0  0  0  0  0  0  0
   -0.3363   -6.1172   27.5628 C   0  0  0  0  0  0  0  0  0  0  0  0
    3.0331   -7.4400   27.6362 C   0  0  0  0  0  0  0  0  0  0  0  0
    5.4553   -8.5933   27.9644 C   0  0  0  0  0  0  0  0  0  0  0  0
   -2.3870  -12.8440   19.2512 C   0  0  0  0  0  0  0  0  0  0  0  0
    0.5331   -7.6964   16.2751 C   0  0  0  0  0  0  0  0  0  0  0  0
   -0.6740  -10.8737   18.0482 C   0  0  0  0  0  0  0  0  0  0  0  0
    5.6751  -10.5870   29.7637 O   0  0  0  0  0  0  0  0  0  0  0  0
    1.7612   -5.6483   26.7172 C   0  0  0  0  0  0  0  0  0  0  0  0
    0.2221   -9.8326   17.4055 C   0  0  0  0  0  0  0  0  0  0  0  0
    4.3850   -9.0730   28.6745 C   0  0  0  0  0  0  0  0  0  0  0  0
  1  7  4  0
  1 22  4  0
  2 17  4  0
  2 20  4  0
  2 28  4  0
  3  6  1  0
  3 19  1  0
  4 19  1  0
  4 26  1  0
  5 17  4  0
  5 18  4  0
  6 20  1  0
  6 26  1  0
  7 24  4  0
  8 15  4  0
  8 24  4  0
  9 14  4  0
  9 21  4  0
 10 12  4  0
 10 27  4  0
 11 12  4  0
 11 23  4  0
 13 23  4  0
 13 27  4  0
 14 20  4  0
 15 22  4  0
 16 18  4  0
 16 25  2  0
 16 28  4  0
 21 28  4  0
 24 27  1  0
M  END
$$$$

 Created by Python create_sdf_string function

 28 31  0  0  0  0  0  0  0  0999 V2000
   -1.0054  -13.0622   19.1198 C   0  0  0  0  0  0  0  0  0  0  0  0
    3.1478   -8.5360   28.5161 C   0  0  0  0  0  0  0  0  0  0  0  0
    0.5798   -7.1906   27.9330 C   0  0  0  0  0  0  0  0  0  0  0  0
    0.3978   -5.1561   26.6955 C   0  0  0  0  0  0  0  0  0  0  0  0
    2.3063  -10.0533   30.0125 C   0  0  0  0  0  0  0  0  0  0  0  0
    1.8591   -6.8254   27.4685 N   0  0  0  0  0  0  0  0  0  0  0  0
   -0.2167  -12.1055   18.5568 C   0  0  0  0  0  0  0  0  0  0  0  0
   -2.0661  -10.6994   18.1916 C   0  0  0  0  0  0  0  0  0  0  0  0
    5.2703   -7.5691   27.1123 C   0  0  0  0  0  0  0  0  0  0  0  0
    1.6204   -9.9887   17.2935 C   0  0  0  0  0  0  0  0  0  0  0  0
    1.8931   -7.9265   16.2047 C   0  0  0  0  0  0  0  0  0  0  0  0
    2.4396   -9.0801   16.7132 C   0  0  0  0  0  0  0  0  0  0  0  0
   -0.2575   -8.6234   16.8582 C   0  0  0  0  0  0  0  0  0  0  0  0
    4.0614   -7.0367   27.0106 N   0  0  0  0  0  0  0  0  0  0  0  0
   -2.9133  -11.6279   18.7578 C   0  0  0  0  0  0  0  0  0  0  0  0
    4.5688  -10.1291   29.5758 C   0  0  0  0  0  0  0  0  0  0  0  0
    2.1008   -9.0410   29.1852 N   0  0  0  0  0  0  0  0  0  0  0  0
    3.4829  -10.5697   30.2091 N   0  0  0  0  0  0  0  0  0  0  0  0
   -0.3363   -6.1172   27.5628 C   0  0  0  0  0  0  0  0  0  0  0  0
    3.0331   -7.4400   27.6362 C   0  0  0  0  0  0  0  0  0  0  0  0
    5.4553   -8.5933   27.9644 C   0  0  0  0  0  0  0  0  0  0  0  0
   -2.3870  -12.8440   19.2512 C   0  0  0  0  0  0  0  0  0  0  0  0
    0.5331   -7.6964   16.2751 C   0  0  0  0  0  0  0  0  0  0  0  0
   -0.6740  -10.8737   18.0482 C   0  0  0  0  0  0  0  0  0  0  0  0
    5.6751  -10.5870   29.7637 O   0  0  0  0  0  0  0  0  0  0  0  0
    1.7612   -5.6483   26.7172 C   0  0  0  0  0  0  0  0  0  0  0  0
    0.2221   -9.8326   17.4055 C   0  0  0  0  0  0  0  0  0  0  0  0
    4.3850   -9.0730   28.6745 C   0  0  0  0  0  0  0  0  0  0  0  0
  1  7  4  0
  1 22  4  0
  2 17  4  0
  2 20  4  0
  2 28  4  0
  3  6  1  0
  3 19  1  0
  4 19  1  0
  4 26  1  0
  5 17  4  0
  5 18  4  0
  6 20  1  0
  6 26  1  0
  7 24  4  0
  8 15  4  0
  8 24  4  0
  9 14  4  0
  9 21  4  0
 10 12  4  0
 10 27  4  0
 11 12  4  0
 11 23  4  0
 13 23  4  0
 13 27  4  0
 14 20  4  0
 15 22  4  0
 16 18  4  0
 16 25  2  0
 16 28  4  0
 21 28  4  0
 24 27  1  0
M  END
$$$$

 Created by Python create_sdf_string function

 28 31  0  0  0  0  0  0  0  0999 V2000
   -1.0054  -13.0622   19.1198 C   0  0  0  0  0  0  0  0  0  0  0  0
    3.1478   -8.5360   28.5161 C   0  0  0  0  0  0  0  0  0  0  0  0
    0.5798   -7.1906   27.9330 C   0  0  0  0  0  0  0  0  0  0  0  0
    0.3978   -5.1561   26.6955 C   0  0  0  0  0  0  0  0  0  0  0  0
    2.3063  -10.0533   30.0125 C   0  0  0  0  0  0  0  0  0  0  0  0
    1.8591   -6.8254   27.4685 N   0  0  0  0  0  0  0  0  0  0  0  0
   -0.2167  -12.1055   18.5568 C   0  0  0  0  0  0  0  0  0  0  0  0
   -2.0661  -10.6994   18.1916 C   0  0  0  0  0  0  0  0  0  0  0  0
    5.2703   -7.5691   27.1123 C   0  0  0  0  0  0  0  0  0  0  0  0
    1.6204   -9.9887   17.2935 C   0  0  0  0  0  0  0  0  0  0  0  0
    1.8931   -7.9265   16.2047 C   0  0  0  0  0  0  0  0  0  0  0  0
    2.4396   -9.0801   16.7132 C   0  0  0  0  0  0  0  0  0  0  0  0
   -0.2575   -8.6234   16.8582 C   0  0  0  0  0  0  0  0  0  0  0  0
    4.0614   -7.0367   27.0106 N   0  0  0  0  0  0  0  0  0  0  0  0
   -2.9133  -11.6279   18.7578 C   0  0  0  0  0  0  0  0  0  0  0  0
    4.5688  -10.1291   29.5758 C   0  0  0  0  0  0  0  0  0  0  0  0
    2.1008   -9.0410   29.1852 N   0  0  0  0  0  0  0  0  0  0  0  0
    3.4829  -10.5697   30.2091 N   0  0  0  0  0  0  0  0  0  0  0  0
   -0.3363   -6.1172   27.5628 C   0  0  0  0  0  0  0  0  0  0  0  0
    3.0331   -7.4400   27.6362 C   0  0  0  0  0  0  0  0  0  0  0  0
    5.4553   -8.5933   27.9644 C   0  0  0  0  0  0  0  0  0  0  0  0
   -2.3870  -12.8440   19.2512 C   0  0  0  0  0  0  0  0  0  0  0  0
    0.5331   -7.6964   16.2751 C   0  0  0  0  0  0  0  0  0  0  0  0
   -0.6740  -10.8737   18.0482 C   0  0  0  0  0  0  0  0  0  0  0  0
    5.6751  -10.5870   29.7637 O   0  0  0  0  0  0  0  0  0  0  0  0
    1.7612   -5.6483   26.7172 C   0  0  0  0  0  0  0  0  0  0  0  0
    0.2221   -9.8326   17.4055 C   0  0  0  0  0  0  0  0  0  0  0  0
    4.3850   -9.0730   28.6745 C   0  0  0  0  0  0  0  0  0  0  0  0
  1  7  4  0
  1 22  4  0
  2 17  4  0
  2 20  4  0
  2 28  4  0
  3  6  1  0
  3 19  1  0
  4 19  1  0
  4 26  1  0
  5 17  4  0
  5 18  4  0
  6 20  1  0
  6 26  1  0
  7 24  4  0
  8 15  4  0
  8 24  4  0
  9 14  4  0
  9 21  4  0
 10 12  4  0
 10 27  4  0
 11 12  4  0
 11 23  4  0
 13 23  4  0
 13 27  4  0
 14 20  4  0
 15 22  4  0
 16 18  4  0
 16 25  2  0
 16 28  4  0
 21 28  4  0
 24 27  1  0
M  END
$$$$

 Created by Python create_sdf_string function

 28 31  0  0  0  0  0  0  0  0999 V2000
   -1.0054  -13.0622   19.1198 C   0  0  0  0  0  0  0  0  0  0  0  0
    3.1478   -8.5360   28.5161 C   0  0  0  0  0  0  0  0  0  0  0  0
    0.5798   -7.1906   27.9330 C   0  0  0  0  0  0  0  0  0  0  0  0
    0.3978   -5.1561   26.6955 C   0  0  0  0  0  0  0  0  0  0  0  0
    2.3063  -10.0533   30.0125 C   0  0  0  0  0  0  0  0  0  0  0  0
    1.8591   -6.8254   27.4685 N   0  0  0  0  0  0  0  0  0  0  0  0
   -0.2167  -12.1055   18.5568 C   0  0  0  0  0  0  0  0  0  0  0  0
   -2.0661  -10.6994   18.1916 C   0  0  0  0  0  0  0  0  0  0  0  0
    5.2703   -7.5691   27.1123 C   0  0  0  0  0  0  0  0  0  0  0  0
    1.6204   -9.9887   17.2935 C   0  0  0  0  0  0  0  0  0  0  0  0
    1.8931   -7.9265   16.2047 C   0  0  0  0  0  0  0  0  0  0  0  0
    2.4396   -9.0801   16.7132 C   0  0  0  0  0  0  0  0  0  0  0  0
   -0.2575   -8.6234   16.8582 C   0  0  0  0  0  0  0  0  0  0  0  0
    4.0614   -7.0367   27.0106 N   0  0  0  0  0  0  0  0  0  0  0  0
   -2.9133  -11.6279   18.7578 C   0  0  0  0  0  0  0  0  0  0  0  0
    4.5688  -10.1291   29.5758 C   0  0  0  0  0  0  0  0  0  0  0  0
    2.1008   -9.0410   29.1852 N   0  0  0  0  0  0  0  0  0  0  0  0
    3.4829  -10.5697   30.2091 N   0  0  0  0  0  0  0  0  0  0  0  0
   -0.3363   -6.1172   27.5628 C   0  0  0  0  0  0  0  0  0  0  0  0
    3.0331   -7.4400   27.6362 C   0  0  0  0  0  0  0  0  0  0  0  0
    5.4553   -8.5933   27.9644 C   0  0  0  0  0  0  0  0  0  0  0  0
   -2.3870  -12.8440   19.2512 C   0  0  0  0  0  0  0  0  0  0  0  0
    0.5331   -7.6964   16.2751 C   0  0  0  0  0  0  0  0  0  0  0  0
   -0.6740  -10.8737   18.0482 C   0  0  0  0  0  0  0  0  0  0  0  0
    5.6751  -10.5870   29.7637 O   0  0  0  0  0  0  0  0  0  0  0  0
    1.7612   -5.6483   26.7172 C   0  0  0  0  0  0  0  0  0  0  0  0
    0.2221   -9.8326   17.4055 C   0  0  0  0  0  0  0  0  0  0  0  0
    4.3850   -9.0730   28.6745 C   0  0  0  0  0  0  0  0  0  0  0  0
  1  7  4  0
  1 22  4  0
  2 17  4  0
  2 20  4  0
  2 28  4  0
  3  6  1  0
  3 19  1  0
  4 19  1  0
  4 26  1  0
  5 17  4  0
  5 18  4  0
  6 20  1  0
  6 26  1  0
  7 24  4  0
  8 15  4  0
  8 24  4  0
  9 14  4  0
  9 21  4  0
 10 12  4  0
 10 27  4  0
 11 12  4  0
 11 23  4  0
 13 23  4  0
 13 27  4  0
 14 20  4  0
 15 22  4  0
 16 18  4  0
 16 25  2  0
 16 28  4  0
 21 28  4  0
 24 27  1  0
M  END
$$$$

 Created by Python create_sdf_string function

 28 31  0  0  0  0  0  0  0  0999 V2000
   -1.0054  -13.0622   19.1198 C   0  0  0  0  0  0  0  0  0  0  0  0
    3.1478   -8.5360   28.5161 C   0  0  0  0  0  0  0  0  0  0  0  0
    0.5798   -7.1906   27.9330 C   0  0  0  0  0  0  0  0  0  0  0  0
    0.3978   -5.1561   26.6955 C   0  0  0  0  0  0  0  0  0  0  0  0
    2.3063  -10.0533   30.0125 C   0  0  0  0  0  0  0  0  0  0  0  0
    1.8591   -6.8254   27.4685 N   0  0  0  0  0  0  0  0  0  0  0  0
   -0.2167  -12.1055   18.5568 C   0  0  0  0  0  0  0  0  0  0  0  0
   -2.0661  -10.6994   18.1916 C   0  0  0  0  0  0  0  0  0  0  0  0
    5.2703   -7.5691   27.1123 C   0  0  0  0  0  0  0  0  0  0  0  0
    1.6204   -9.9887   17.2935 C   0  0  0  0  0  0  0  0  0  0  0  0
    1.8931   -7.9265   16.2047 C   0  0  0  0  0  0  0  0  0  0  0  0
    2.4396   -9.0801   16.7132 C   0  0  0  0  0  0  0  0  0  0  0  0
   -0.2575   -8.6234   16.8582 C   0  0  0  0  0  0  0  0  0  0  0  0
    4.0614   -7.0367   27.0106 N   0  0  0  0  0  0  0  0  0  0  0  0
   -2.9133  -11.6279   18.7578 C   0  0  0  0  0  0  0  0  0  0  0  0
    4.5688  -10.1291   29.5758 C   0  0  0  0  0  0  0  0  0  0  0  0
    2.1008   -9.0410   29.1852 N   0  0  0  0  0  0  0  0  0  0  0  0
    3.4829  -10.5697   30.2091 N   0  0  0  0  0  0  0  0  0  0  0  0
   -0.3363   -6.1172   27.5628 C   0  0  0  0  0  0  0  0  0  0  0  0
    3.0331   -7.4400   27.6362 C   0  0  0  0  0  0  0  0  0  0  0  0
    5.4553   -8.5933   27.9644 C   0  0  0  0  0  0  0  0  0  0  0  0
   -2.3870  -12.8440   19.2512 C   0  0  0  0  0  0  0  0  0  0  0  0
    0.5331   -7.6964   16.2751 C   0  0  0  0  0  0  0  0  0  0  0  0
   -0.6740  -10.8737   18.0482 C   0  0  0  0  0  0  0  0  0  0  0  0
    5.6751  -10.5870   29.7637 O   0  0  0  0  0  0  0  0  0  0  0  0
    1.7612   -5.6483   26.7172 C   0  0  0  0  0  0  0  0  0  0  0  0
    0.2221   -9.8326   17.4055 C   0  0  0  0  0  0  0  0  0  0  0  0
    4.3850   -9.0730   28.6745 C   0  0  0  0  0  0  0  0  0  0  0  0
  1  7  4  0
  1 22  4  0
  2 17  4  0
  2 20  4  0
  2 28  4  0
  3  6  1  0
  3 19  1  0
  4 19  1  0
  4 26  1  0
  5 17  4  0
  5 18  4  0
  6 20  1  0
  6 26  1  0
  7 24  4  0
  8 15  4  0
  8 24  4  0
  9 14  4  0
  9 21  4  0
 10 12  4  0
 10 27  4  0
 11 12  4  0
 11 23  4  0
 13 23  4  0
 13 27  4  0
 14 20  4  0
 15 22  4  0
 16 18  4  0
 16 25  2  0
 16 28  4  0
 21 28  4  0
 24 27  1  0
M  END
$$$$

 Created by Python create_sdf_string function

 28 31  0  0  0  0  0  0  0  0999 V2000
   -1.0054  -13.0622   19.1198 C   0  0  0  0  0  0  0  0  0  0  0  0
    3.1478   -8.5360   28.5161 C   0  0  0  0  0  0  0  0  0  0  0  0
    0.5798   -7.1906   27.9330 C   0  0  0  0  0  0  0  0  0  0  0  0
    0.3978   -5.1561   26.6955 C   0  0  0  0  0  0  0  0  0  0  0  0
    2.3063  -10.0533   30.0125 C   0  0  0  0  0  0  0  0  0  0  0  0
    1.8591   -6.8254   27.4685 N   0  0  0  0  0  0  0  0  0  0  0  0
   -0.2167  -12.1055   18.5568 C   0  0  0  0  0  0  0  0  0  0  0  0
   -2.0661  -10.6994   18.1916 C   0  0  0  0  0  0  0  0  0  0  0  0
    5.2703   -7.5691   27.1123 C   0  0  0  0  0  0  0  0  0  0  0  0
    1.6204   -9.9887   17.2935 C   0  0  0  0  0  0  0  0  0  0  0  0
    1.8931   -7.9265   16.2047 C   0  0  0  0  0  0  0  0  0  0  0  0
    2.4396   -9.0801   16.7132 C   0  0  0  0  0  0  0  0  0  0  0  0
   -0.2575   -8.6234   16.8582 C   0  0  0  0  0  0  0  0  0  0  0  0
    4.0614   -7.0367   27.0106 N   0  0  0  0  0  0  0  0  0  0  0  0
   -2.9133  -11.6279   18.7578 C   0  0  0  0  0  0  0  0  0  0  0  0
    4.5688  -10.1291   29.5758 C   0  0  0  0  0  0  0  0  0  0  0  0
    2.1008   -9.0410   29.1852 N   0  0  0  0  0  0  0  0  0  0  0  0
    3.4829  -10.5697   30.2091 N   0  0  0  0  0  0  0  0  0  0  0  0
   -0.3363   -6.1172   27.5628 C   0  0  0  0  0  0  0  0  0  0  0  0
    3.0331   -7.4400   27.6362 C   0  0  0  0  0  0  0  0  0  0  0  0
    5.4553   -8.5933   27.9644 C   0  0  0  0  0  0  0  0  0  0  0  0
   -2.3870  -12.8440   19.2512 C   0  0  0  0  0  0  0  0  0  0  0  0
    0.5331   -7.6964   16.2751 C   0  0  0  0  0  0  0  0  0  0  0  0
   -0.6740  -10.8737   18.0482 C   0  0  0  0  0  0  0  0  0  0  0  0
    5.6751  -10.5870   29.7637 O   0  0  0  0  0  0  0  0  0  0  0  0
    1.7612   -5.6483   26.7172 C   0  0  0  0  0  0  0  0  0  0  0  0
    0.2221   -9.8326   17.4055 C   0  0  0  0  0  0  0  0  0  0  0  0
    4.3850   -9.0730   28.6745 C   0  0  0  0  0  0  0  0  0  0  0  0
  1  7  4  0
  1 22  4  0
  2 17  4  0
  2 20  4  0
  2 28  4  0
  3  6  1  0
  3 19  1  0
  4 19  1  0
  4 26  1  0
  5 17  4  0
  5 18  4  0
  6 20  1  0
  6 26  1  0
  7 24  4  0
  8 15  4  0
  8 24  4  0
  9 14  4  0
  9 21  4  0
 10 12  4  0
 10 27  4  0
 11 12  4  0
 11 23  4  0
 13 23  4  0
 13 27  4  0
 14 20  4  0
 15 22  4  0
 16 18  4  0
 16 25  2  0
 16 28  4  0
 21 28  4  0
 24 27  1  0
M  END
$$$$

 Created by Python create_sdf_string function

 28 31  0  0  0  0  0  0  0  0999 V2000
   -1.0054  -13.0622   19.1198 C   0  0  0  0  0  0  0  0  0  0  0  0
    3.1478   -8.5360   28.5161 C   0  0  0  0  0  0  0  0  0  0  0  0
    0.5798   -7.1906   27.9330 C   0  0  0  0  0  0  0  0  0  0  0  0
    0.3978   -5.1561   26.6955 C   0  0  0  0  0  0  0  0  0  0  0  0
    2.3063  -10.0533   30.0125 C   0  0  0  0  0  0  0  0  0  0  0  0
    1.8591   -6.8254   27.4685 N   0  0  0  0  0  0  0  0  0  0  0  0
   -0.2167  -12.1055   18.5568 C   0  0  0  0  0  0  0  0  0  0  0  0
   -2.0661  -10.6994   18.1916 C   0  0  0  0  0  0  0  0  0  0  0  0
    5.2703   -7.5691   27.1123 C   0  0  0  0  0  0  0  0  0  0  0  0
    1.6204   -9.9887   17.2935 C   0  0  0  0  0  0  0  0  0  0  0  0
    1.8931   -7.9265   16.2047 C   0  0  0  0  0  0  0  0  0  0  0  0
    2.4396   -9.0801   16.7132 C   0  0  0  0  0  0  0  0  0  0  0  0
   -0.2575   -8.6234   16.8582 C   0  0  0  0  0  0  0  0  0  0  0  0
    4.0614   -7.0367   27.0106 N   0  0  0  0  0  0  0  0  0  0  0  0
   -2.9133  -11.6279   18.7578 C   0  0  0  0  0  0  0  0  0  0  0  0
    4.5688  -10.1291   29.5758 C   0  0  0  0  0  0  0  0  0  0  0  0
    2.1008   -9.0410   29.1852 N   0  0  0  0  0  0  0  0  0  0  0  0
    3.4829  -10.5697   30.2091 N   0  0  0  0  0  0  0  0  0  0  0  0
   -0.3363   -6.1172   27.5628 C   0  0  0  0  0  0  0  0  0  0  0  0
    3.0331   -7.4400   27.6362 C   0  0  0  0  0  0  0  0  0  0  0  0
    5.4553   -8.5933   27.9644 C   0  0  0  0  0  0  0  0  0  0  0  0
   -2.3870  -12.8440   19.2512 C   0  0  0  0  0  0  0  0  0  0  0  0
    0.5331   -7.6964   16.2751 C   0  0  0  0  0  0  0  0  0  0  0  0
   -0.6740  -10.8737   18.0482 C   0  0  0  0  0  0  0  0  0  0  0  0
    5.6751  -10.5870   29.7637 O   0  0  0  0  0  0  0  0  0  0  0  0
    1.7612   -5.6483   26.7172 C   0  0  0  0  0  0  0  0  0  0  0  0
    0.2221   -9.8326   17.4055 C   0  0  0  0  0  0  0  0  0  0  0  0
    4.3850   -9.0730   28.6745 C   0  0  0  0  0  0  0  0  0  0  0  0
  1  7  4  0
  1 22  4  0
  2 17  4  0
  2 20  4  0
  2 28  4  0
  3  6  1  0
  3 19  1  0
  4 19  1  0
  4 26  1  0
  5 17  4  0
  5 18  4  0
  6 20  1  0
  6 26  1  0
  7 24  4  0
  8 15  4  0
  8 24  4  0
  9 14  4  0
  9 21  4  0
 10 12  4  0
 10 27  4  0
 11 12  4  0
 11 23  4  0
 13 23  4  0
 13 27  4  0
 14 20  4  0
 15 22  4  0
 16 18  4  0
 16 25  2  0
 16 28  4  0
 21 28  4  0
 24 27  1  0
M  END
$$$$

 Created by Python create_sdf_string function

 28 31  0  0  0  0  0  0  0  0999 V2000
   -1.0054  -13.0622   19.1198 C   0  0  0  0  0  0  0  0  0  0  0  0
    3.1478   -8.5360   28.5161 C   0  0  0  0  0  0  0  0  0  0  0  0
    0.5798   -7.1906   27.9330 C   0  0  0  0  0  0  0  0  0  0  0  0
    0.3978   -5.1561   26.6955 C   0  0  0  0  0  0  0  0  0  0  0  0
    2.3063  -10.0533   30.0125 C   0  0  0  0  0  0  0  0  0  0  0  0
    1.8591   -6.8254   27.4685 N   0  0  0  0  0  0  0  0  0  0  0  0
   -0.2167  -12.1055   18.5568 C   0  0  0  0  0  0  0  0  0  0  0  0
   -2.0661  -10.6994   18.1916 C   0  0  0  0  0  0  0  0  0  0  0  0
    5.2703   -7.5691   27.1123 C   0  0  0  0  0  0  0  0  0  0  0  0
    1.6204   -9.9887   17.2935 C   0  0  0  0  0  0  0  0  0  0  0  0
    1.8931   -7.9265   16.2047 C   0  0  0  0  0  0  0  0  0  0  0  0
    2.4396   -9.0801   16.7132 C   0  0  0  0  0  0  0  0  0  0  0  0
   -0.2575   -8.6234   16.8582 C   0  0  0  0  0  0  0  0  0  0  0  0
    4.0614   -7.0367   27.0106 N   0  0  0  0  0  0  0  0  0  0  0  0
   -2.9133  -11.6279   18.7578 C   0  0  0  0  0  0  0  0  0  0  0  0
    4.5688  -10.1291   29.5758 C   0  0  0  0  0  0  0  0  0  0  0  0
    2.1008   -9.0410   29.1852 N   0  0  0  0  0  0  0  0  0  0  0  0
    3.4829  -10.5697   30.2091 N   0  0  0  0  0  0  0  0  0  0  0  0
   -0.3363   -6.1172   27.5628 C   0  0  0  0  0  0  0  0  0  0  0  0
    3.0331   -7.4400   27.6362 C   0  0  0  0  0  0  0  0  0  0  0  0
    5.4553   -8.5933   27.9644 C   0  0  0  0  0  0  0  0  0  0  0  0
   -2.3870  -12.8440   19.2512 C   0  0  0  0  0  0  0  0  0  0  0  0
    0.5331   -7.6964   16.2751 C   0  0  0  0  0  0  0  0  0  0  0  0
   -0.6740  -10.8737   18.0482 C   0  0  0  0  0  0  0  0  0  0  0  0
    5.6751  -10.5870   29.7637 O   0  0  0  0  0  0  0  0  0  0  0  0
    1.7612   -5.6483   26.7172 C   0  0  0  0  0  0  0  0  0  0  0  0
    0.2221   -9.8326   17.4055 C   0  0  0  0  0  0  0  0  0  0  0  0
    4.3850   -9.0730   28.6745 C   0  0  0  0  0  0  0  0  0  0  0  0
  1  7  4  0
  1 22  4  0
  2 17  4  0
  2 20  4  0
  2 28  4  0
  3  6  1  0
  3 19  1  0
  4 19  1  0
  4 26  1  0
  5 17  4  0
  5 18  4  0
  6 20  1  0
  6 26  1  0
  7 24  4  0
  8 15  4  0
  8 24  4  0
  9 14  4  0
  9 21  4  0
 10 12  4  0
 10 27  4  0
 11 12  4  0
 11 23  4  0
 13 23  4  0
 13 27  4  0
 14 20  4  0
 15 22  4  0
 16 18  4  0
 16 25  2  0
 16 28  4  0
 21 28  4  0
 24 27  1  0
M  END
$$$$

 Created by Python create_sdf_string function

 28 31  0  0  0  0  0  0  0  0999 V2000
   -1.0054  -13.0622   19.1198 C   0  0  0  0  0  0  0  0  0  0  0  0
    3.1478   -8.5360   28.5161 C   0  0  0  0  0  0  0  0  0  0  0  0
    0.5798   -7.1906   27.9330 C   0  0  0  0  0  0  0  0  0  0  0  0
    0.3978   -5.1561   26.6955 C   0  0  0  0  0  0  0  0  0  0  0  0
    2.3063  -10.0533   30.0125 C   0  0  0  0  0  0  0  0  0  0  0  0
    1.8591   -6.8254   27.4685 N   0  0  0  0  0  0  0  0  0  0  0  0
   -0.2167  -12.1055   18.5568 C   0  0  0  0  0  0  0  0  0  0  0  0
   -2.0661  -10.6994   18.1916 C   0  0  0  0  0  0  0  0  0  0  0  0
    5.2703   -7.5691   27.1123 C   0  0  0  0  0  0  0  0  0  0  0  0
    1.6204   -9.9887   17.2935 C   0  0  0  0  0  0  0  0  0  0  0  0
    1.8931   -7.9265   16.2047 C   0  0  0  0  0  0  0  0  0  0  0  0
    2.4396   -9.0801   16.7132 C   0  0  0  0  0  0  0  0  0  0  0  0
   -0.2575   -8.6234   16.8582 C   0  0  0  0  0  0  0  0  0  0  0  0
    4.0614   -7.0367   27.0106 N   0  0  0  0  0  0  0  0  0  0  0  0
   -2.9133  -11.6279   18.7578 C   0  0  0  0  0  0  0  0  0  0  0  0
    4.5688  -10.1291   29.5758 C   0  0  0  0  0  0  0  0  0  0  0  0
    2.1008   -9.0410   29.1852 N   0  0  0  0  0  0  0  0  0  0  0  0
    3.4829  -10.5697   30.2091 N   0  0  0  0  0  0  0  0  0  0  0  0
   -0.3363   -6.1172   27.5628 C   0  0  0  0  0  0  0  0  0  0  0  0
    3.0331   -7.4400   27.6362 C   0  0  0  0  0  0  0  0  0  0  0  0
    5.4553   -8.5933   27.9644 C   0  0  0  0  0  0  0  0  0  0  0  0
   -2.3870  -12.8440   19.2512 C   0  0  0  0  0  0  0  0  0  0  0  0
    0.5331   -7.6964   16.2751 C   0  0  0  0  0  0  0  0  0  0  0  0
   -0.6740  -10.8737   18.0482 C   0  0  0  0  0  0  0  0  0  0  0  0
    5.6751  -10.5870   29.7637 O   0  0  0  0  0  0  0  0  0  0  0  0
    1.7612   -5.6483   26.7172 C   0  0  0  0  0  0  0  0  0  0  0  0
    0.2221   -9.8326   17.4055 C   0  0  0  0  0  0  0  0  0  0  0  0
    4.3850   -9.0730   28.6745 C   0  0  0  0  0  0  0  0  0  0  0  0
  1  7  4  0
  1 22  4  0
  2 17  4  0
  2 20  4  0
  2 28  4  0
  3  6  1  0
  3 19  1  0
  4 19  1  0
  4 26  1  0
  5 17  4  0
  5 18  4  0
  6 20  1  0
  6 26  1  0
  7 24  4  0
  8 15  4  0
  8 24  4  0
  9 14  4  0
  9 21  4  0
 10 12  4  0
 10 27  4  0
 11 12  4  0
 11 23  4  0
 13 23  4  0
 13 27  4  0
 14 20  4  0
 15 22  4  0
 16 18  4  0
 16 25  2  0
 16 28  4  0
 21 28  4  0
 24 27  1  0
M  END
$$$$

 Created by Python create_sdf_string function

 28 31  0  0  0  0  0  0  0  0999 V2000
   -1.0054  -13.0622   19.1198 C   0  0  0  0  0  0  0  0  0  0  0  0
    3.1478   -8.5360   28.5161 C   0  0  0  0  0  0  0  0  0  0  0  0
    0.5798   -7.1906   27.9330 C   0  0  0  0  0  0  0  0  0  0  0  0
    0.3978   -5.1561   26.6955 C   0  0  0  0  0  0  0  0  0  0  0  0
    2.3063  -10.0533   30.0125 C   0  0  0  0  0  0  0  0  0  0  0  0
    1.8591   -6.8254   27.4685 N   0  0  0  0  0  0  0  0  0  0  0  0
   -0.2167  -12.1055   18.5568 C   0  0  0  0  0  0  0  0  0  0  0  0
   -2.0661  -10.6994   18.1916 C   0  0  0  0  0  0  0  0  0  0  0  0
    5.2703   -7.5691   27.1123 C   0  0  0  0  0  0  0  0  0  0  0  0
    1.6204   -9.9887   17.2935 C   0  0  0  0  0  0  0  0  0  0  0  0
    1.8931   -7.9265   16.2047 C   0  0  0  0  0  0  0  0  0  0  0  0
    2.4396   -9.0801   16.7132 C   0  0  0  0  0  0  0  0  0  0  0  0
   -0.2575   -8.6234   16.8582 C   0  0  0  0  0  0  0  0  0  0  0  0
    4.0614   -7.0367   27.0106 N   0  0  0  0  0  0  0  0  0  0  0  0
   -2.9133  -11.6279   18.7578 C   0  0  0  0  0  0  0  0  0  0  0  0
    4.5688  -10.1291   29.5758 C   0  0  0  0  0  0  0  0  0  0  0  0
    2.1008   -9.0410   29.1852 N   0  0  0  0  0  0  0  0  0  0  0  0
    3.4829  -10.5697   30.2091 N   0  0  0  0  0  0  0  0  0  0  0  0
   -0.3363   -6.1172   27.5628 C   0  0  0  0  0  0  0  0  0  0  0  0
    3.0331   -7.4400   27.6362 C   0  0  0  0  0  0  0  0  0  0  0  0
    5.4553   -8.5933   27.9644 C   0  0  0  0  0  0  0  0  0  0  0  0
   -2.3870  -12.8440   19.2512 C   0  0  0  0  0  0  0  0  0  0  0  0
    0.5331   -7.6964   16.2751 C   0  0  0  0  0  0  0  0  0  0  0  0
   -0.6740  -10.8737   18.0482 C   0  0  0  0  0  0  0  0  0  0  0  0
    5.6751  -10.5870   29.7637 O   0  0  0  0  0  0  0  0  0  0  0  0
    1.7612   -5.6483   26.7172 C   0  0  0  0  0  0  0  0  0  0  0  0
    0.2221   -9.8326   17.4055 C   0  0  0  0  0  0  0  0  0  0  0  0
    4.3850   -9.0730   28.6745 C   0  0  0  0  0  0  0  0  0  0  0  0
  1  7  4  0
  1 22  4  0
  2 17  4  0
  2 20  4  0
  2 28  4  0
  3  6  1  0
  3 19  1  0
  4 19  1  0
  4 26  1  0
  5 17  4  0
  5 18  4  0
  6 20  1  0
  6 26  1  0
  7 24  4  0
  8 15  4  0
  8 24  4  0
  9 14  4  0
  9 21  4  0
 10 12  4  0
 10 27  4  0
 11 12  4  0
 11 23  4  0
 13 23  4  0
 13 27  4  0
 14 20  4  0
 15 22  4  0
 16 18  4  0
 16 25  2  0
 16 28  4  0
 21 28  4  0
 24 27  1  0
M  END
$$$$

 Created by Python create_sdf_string function

 28 31  0  0  0  0  0  0  0  0999 V2000
   -1.0054  -13.0622   19.1198 C   0  0  0  0  0  0  0  0  0  0  0  0
    3.1478   -8.5360   28.5161 C   0  0  0  0  0  0  0  0  0  0  0  0
    0.5798   -7.1906   27.9330 C   0  0  0  0  0  0  0  0  0  0  0  0
    0.3978   -5.1561   26.6955 C   0  0  0  0  0  0  0  0  0  0  0  0
    2.3063  -10.0533   30.0125 C   0  0  0  0  0  0  0  0  0  0  0  0
    1.8591   -6.8254   27.4685 N   0  0  0  0  0  0  0  0  0  0  0  0
   -0.2167  -12.1055   18.5568 C   0  0  0  0  0  0  0  0  0  0  0  0
   -2.0661  -10.6994   18.1916 C   0  0  0  0  0  0  0  0  0  0  0  0
    5.2703   -7.5691   27.1123 C   0  0  0  0  0  0  0  0  0  0  0  0
    1.6204   -9.9887   17.2935 C   0  0  0  0  0  0  0  0  0  0  0  0
    1.8931   -7.9265   16.2047 C   0  0  0  0  0  0  0  0  0  0  0  0
    2.4396   -9.0801   16.7132 C   0  0  0  0  0  0  0  0  0  0  0  0
   -0.2575   -8.6234   16.8582 C   0  0  0  0  0  0  0  0  0  0  0  0
    4.0614   -7.0367   27.0106 N   0  0  0  0  0  0  0  0  0  0  0  0
   -2.9133  -11.6279   18.7578 C   0  0  0  0  0  0  0  0  0  0  0  0
    4.5688  -10.1291   29.5758 C   0  0  0  0  0  0  0  0  0  0  0  0
    2.1008   -9.0410   29.1852 N   0  0  0  0  0  0  0  0  0  0  0  0
    3.4829  -10.5697   30.2091 N   0  0  0  0  0  0  0  0  0  0  0  0
   -0.3363   -6.1172   27.5628 C   0  0  0  0  0  0  0  0  0  0  0  0
    3.0331   -7.4400   27.6362 C   0  0  0  0  0  0  0  0  0  0  0  0
    5.4553   -8.5933   27.9644 C   0  0  0  0  0  0  0  0  0  0  0  0
   -2.3870  -12.8440   19.2512 C   0  0  0  0  0  0  0  0  0  0  0  0
    0.5331   -7.6964   16.2751 C   0  0  0  0  0  0  0  0  0  0  0  0
   -0.6740  -10.8737   18.0482 C   0  0  0  0  0  0  0  0  0  0  0  0
    5.6751  -10.5870   29.7637 O   0  0  0  0  0  0  0  0  0  0  0  0
    1.7612   -5.6483   26.7172 C   0  0  0  0  0  0  0  0  0  0  0  0
    0.2221   -9.8326   17.4055 C   0  0  0  0  0  0  0  0  0  0  0  0
    4.3850   -9.0730   28.6745 C   0  0  0  0  0  0  0  0  0  0  0  0
  1  7  4  0
  1 22  4  0
  2 17  4  0
  2 20  4  0
  2 28  4  0
  3  6  1  0
  3 19  1  0
  4 19  1  0
  4 26  1  0
  5 17  4  0
  5 18  4  0
  6 20  1  0
  6 26  1  0
  7 24  4  0
  8 15  4  0
  8 24  4  0
  9 14  4  0
  9 21  4  0
 10 12  4  0
 10 27  4  0
 11 12  4  0
 11 23  4  0
 13 23  4  0
 13 27  4  0
 14 20  4  0
 15 22  4  0
 16 18  4  0
 16 25  2  0
 16 28  4  0
 21 28  4  0
 24 27  1  0
M  END
$$$$

 Created by Python create_sdf_string function

 28 31  0  0  0  0  0  0  0  0999 V2000
   -1.0054  -13.0622   19.1198 C   0  0  0  0  0  0  0  0  0  0  0  0
    3.1478   -8.5360   28.5161 C   0  0  0  0  0  0  0  0  0  0  0  0
    0.5798   -7.1906   27.9330 C   0  0  0  0  0  0  0  0  0  0  0  0
    0.3978   -5.1561   26.6955 C   0  0  0  0  0  0  0  0  0  0  0  0
    2.3063  -10.0533   30.0125 C   0  0  0  0  0  0  0  0  0  0  0  0
    1.8591   -6.8254   27.4685 N   0  0  0  0  0  0  0  0  0  0  0  0
   -0.2167  -12.1055   18.5568 C   0  0  0  0  0  0  0  0  0  0  0  0
   -2.0661  -10.6994   18.1916 C   0  0  0  0  0  0  0  0  0  0  0  0
    5.2703   -7.5691   27.1123 C   0  0  0  0  0  0  0  0  0  0  0  0
    1.6204   -9.9887   17.2935 C   0  0  0  0  0  0  0  0  0  0  0  0
    1.8931   -7.9265   16.2047 C   0  0  0  0  0  0  0  0  0  0  0  0
    2.4396   -9.0801   16.7132 C   0  0  0  0  0  0  0  0  0  0  0  0
   -0.2575   -8.6234   16.8582 C   0  0  0  0  0  0  0  0  0  0  0  0
    4.0614   -7.0367   27.0106 N   0  0  0  0  0  0  0  0  0  0  0  0
   -2.9133  -11.6279   18.7578 C   0  0  0  0  0  0  0  0  0  0  0  0
    4.5688  -10.1291   29.5758 C   0  0  0  0  0  0  0  0  0  0  0  0
    2.1008   -9.0410   29.1852 N   0  0  0  0  0  0  0  0  0  0  0  0
    3.4829  -10.5697   30.2091 N   0  0  0  0  0  0  0  0  0  0  0  0
   -0.3363   -6.1172   27.5628 C   0  0  0  0  0  0  0  0  0  0  0  0
    3.0331   -7.4400   27.6362 C   0  0  0  0  0  0  0  0  0  0  0  0
    5.4553   -8.5933   27.9644 C   0  0  0  0  0  0  0  0  0  0  0  0
   -2.3870  -12.8440   19.2512 C   0  0  0  0  0  0  0  0  0  0  0  0
    0.5331   -7.6964   16.2751 C   0  0  0  0  0  0  0  0  0  0  0  0
   -0.6740  -10.8737   18.0482 C   0  0  0  0  0  0  0  0  0  0  0  0
    5.6751  -10.5870   29.7637 O   0  0  0  0  0  0  0  0  0  0  0  0
    1.7612   -5.6483   26.7172 C   0  0  0  0  0  0  0  0  0  0  0  0
    0.2221   -9.8326   17.4055 C   0  0  0  0  0  0  0  0  0  0  0  0
    4.3850   -9.0730   28.6745 C   0  0  0  0  0  0  0  0  0  0  0  0
  1  7  4  0
  1 22  4  0
  2 17  4  0
  2 20  4  0
  2 28  4  0
  3  6  1  0
  3 19  1  0
  4 19  1  0
  4 26  1  0
  5 17  4  0
  5 18  4  0
  6 20  1  0
  6 26  1  0
  7 24  4  0
  8 15  4  0
  8 24  4  0
  9 14  4  0
  9 21  4  0
 10 12  4  0
 10 27  4  0
 11 12  4  0
 11 23  4  0
 13 23  4  0
 13 27  4  0
 14 20  4  0
 15 22  4  0
 16 18  4  0
 16 25  2  0
 16 28  4  0
 21 28  4  0
 24 27  1  0
M  END
$$$$

 Created by Python create_sdf_string function

 28 31  0  0  0  0  0  0  0  0999 V2000
   -1.0054  -13.0622   19.1198 C   0  0  0  0  0  0  0  0  0  0  0  0
    3.1478   -8.5360   28.5161 C   0  0  0  0  0  0  0  0  0  0  0  0
    0.5798   -7.1906   27.9330 C   0  0  0  0  0  0  0  0  0  0  0  0
    0.3978   -5.1561   26.6955 C   0  0  0  0  0  0  0  0  0  0  0  0
    2.3063  -10.0533   30.0125 C   0  0  0  0  0  0  0  0  0  0  0  0
    1.8591   -6.8254   27.4685 N   0  0  0  0  0  0  0  0  0  0  0  0
   -0.2167  -12.1055   18.5568 C   0  0  0  0  0  0  0  0  0  0  0  0
   -2.0661  -10.6994   18.1916 C   0  0  0  0  0  0  0  0  0  0  0  0
    5.2703   -7.5691   27.1123 C   0  0  0  0  0  0  0  0  0  0  0  0
    1.6204   -9.9887   17.2935 C   0  0  0  0  0  0  0  0  0  0  0  0
    1.8931   -7.9265   16.2047 C   0  0  0  0  0  0  0  0  0  0  0  0
    2.4396   -9.0801   16.7132 C   0  0  0  0  0  0  0  0  0  0  0  0
   -0.2575   -8.6234   16.8582 C   0  0  0  0  0  0  0  0  0  0  0  0
    4.0614   -7.0367   27.0106 N   0  0  0  0  0  0  0  0  0  0  0  0
   -2.9133  -11.6279   18.7578 C   0  0  0  0  0  0  0  0  0  0  0  0
    4.5688  -10.1291   29.5758 C   0  0  0  0  0  0  0  0  0  0  0  0
    2.1008   -9.0410   29.1852 N   0  0  0  0  0  0  0  0  0  0  0  0
    3.4829  -10.5697   30.2091 N   0  0  0  0  0  0  0  0  0  0  0  0
   -0.3363   -6.1172   27.5628 C   0  0  0  0  0  0  0  0  0  0  0  0
    3.0331   -7.4400   27.6362 C   0  0  0  0  0  0  0  0  0  0  0  0
    5.4553   -8.5933   27.9644 C   0  0  0  0  0  0  0  0  0  0  0  0
   -2.3870  -12.8440   19.2512 C   0  0  0  0  0  0  0  0  0  0  0  0
    0.5331   -7.6964   16.2751 C   0  0  0  0  0  0  0  0  0  0  0  0
   -0.6740  -10.8737   18.0482 C   0  0  0  0  0  0  0  0  0  0  0  0
    5.6751  -10.5870   29.7637 O   0  0  0  0  0  0  0  0  0  0  0  0
    1.7612   -5.6483   26.7172 C   0  0  0  0  0  0  0  0  0  0  0  0
    0.2221   -9.8326   17.4055 C   0  0  0  0  0  0  0  0  0  0  0  0
    4.3850   -9.0730   28.6745 C   0  0  0  0  0  0  0  0  0  0  0  0
  1  7  4  0
  1 22  4  0
  2 17  4  0
  2 20  4  0
  2 28  4  0
  3  6  1  0
  3 19  1  0
  4 19  1  0
  4 26  1  0
  5 17  4  0
  5 18  4  0
  6 20  1  0
  6 26  1  0
  7 24  4  0
  8 15  4  0
  8 24  4  0
  9 14  4  0
  9 21  4  0
 10 12  4  0
 10 27  4  0
 11 12  4  0
 11 23  4  0
 13 23  4  0
 13 27  4  0
 14 20  4  0
 15 22  4  0
 16 18  4  0
 16 25  2  0
 16 28  4  0
 21 28  4  0
 24 27  1  0
M  END
$$$$

 Created by Python create_sdf_string function

 28 31  0  0  0  0  0  0  0  0999 V2000
   -1.0054  -13.0622   19.1198 C   0  0  0  0  0  0  0  0  0  0  0  0
    3.1478   -8.5360   28.5161 C   0  0  0  0  0  0  0  0  0  0  0  0
    0.5798   -7.1906   27.9330 C   0  0  0  0  0  0  0  0  0  0  0  0
    0.3978   -5.1561   26.6955 C   0  0  0  0  0  0  0  0  0  0  0  0
    2.3063  -10.0533   30.0125 C   0  0  0  0  0  0  0  0  0  0  0  0
    1.8591   -6.8254   27.4685 N   0  0  0  0  0  0  0  0  0  0  0  0
   -0.2167  -12.1055   18.5568 C   0  0  0  0  0  0  0  0  0  0  0  0
   -2.0661  -10.6994   18.1916 C   0  0  0  0  0  0  0  0  0  0  0  0
    5.2703   -7.5691   27.1123 C   0  0  0  0  0  0  0  0  0  0  0  0
    1.6204   -9.9887   17.2935 C   0  0  0  0  0  0  0  0  0  0  0  0
    1.8931   -7.9265   16.2047 C   0  0  0  0  0  0  0  0  0  0  0  0
    2.4396   -9.0801   16.7132 C   0  0  0  0  0  0  0  0  0  0  0  0
   -0.2575   -8.6234   16.8582 C   0  0  0  0  0  0  0  0  0  0  0  0
    4.0614   -7.0367   27.0106 N   0  0  0  0  0  0  0  0  0  0  0  0
   -2.9133  -11.6279   18.7578 C   0  0  0  0  0  0  0  0  0  0  0  0
    4.5688  -10.1291   29.5758 C   0  0  0  0  0  0  0  0  0  0  0  0
    2.1008   -9.0410   29.1852 N   0  0  0  0  0  0  0  0  0  0  0  0
    3.4829  -10.5697   30.2091 N   0  0  0  0  0  0  0  0  0  0  0  0
   -0.3363   -6.1172   27.5628 C   0  0  0  0  0  0  0  0  0  0  0  0
    3.0331   -7.4400   27.6362 C   0  0  0  0  0  0  0  0  0  0  0  0
    5.4553   -8.5933   27.9644 C   0  0  0  0  0  0  0  0  0  0  0  0
   -2.3870  -12.8440   19.2512 C   0  0  0  0  0  0  0  0  0  0  0  0
    0.5331   -7.6964   16.2751 C   0  0  0  0  0  0  0  0  0  0  0  0
   -0.6740  -10.8737   18.0482 C   0  0  0  0  0  0  0  0  0  0  0  0
    5.6751  -10.5870   29.7637 O   0  0  0  0  0  0  0  0  0  0  0  0
    1.7612   -5.6483   26.7172 C   0  0  0  0  0  0  0  0  0  0  0  0
    0.2221   -9.8326   17.4055 C   0  0  0  0  0  0  0  0  0  0  0  0
    4.3850   -9.0730   28.6745 C   0  0  0  0  0  0  0  0  0  0  0  0
  1  7  4  0
  1 22  4  0
  2 17  4  0
  2 20  4  0
  2 28  4  0
  3  6  1  0
  3 19  1  0
  4 19  1  0
  4 26  1  0
  5 17  4  0
  5 18  4  0
  6 20  1  0
  6 26  1  0
  7 24  4  0
  8 15  4  0
  8 24  4  0
  9 14  4  0
  9 21  4  0
 10 12  4  0
 10 27  4  0
 11 12  4  0
 11 23  4  0
 13 23  4  0
 13 27  4  0
 14 20  4  0
 15 22  4  0
 16 18  4  0
 16 25  2  0
 16 28  4  0
 21 28  4  0
 24 27  1  0
M  END
$$$$

 Created by Python create_sdf_string function

 28 31  0  0  0  0  0  0  0  0999 V2000
   -1.0054  -13.0622   19.1198 C   0  0  0  0  0  0  0  0  0  0  0  0
    3.1478   -8.5360   28.5161 C   0  0  0  0  0  0  0  0  0  0  0  0
    0.5798   -7.1906   27.9330 C   0  0  0  0  0  0  0  0  0  0  0  0
    0.3978   -5.1561   26.6955 C   0  0  0  0  0  0  0  0  0  0  0  0
    2.3063  -10.0533   30.0125 C   0  0  0  0  0  0  0  0  0  0  0  0
    1.8591   -6.8254   27.4685 N   0  0  0  0  0  0  0  0  0  0  0  0
   -0.2167  -12.1055   18.5568 C   0  0  0  0  0  0  0  0  0  0  0  0
   -2.0661  -10.6994   18.1916 C   0  0  0  0  0  0  0  0  0  0  0  0
    5.2703   -7.5691   27.1123 C   0  0  0  0  0  0  0  0  0  0  0  0
    1.6204   -9.9887   17.2935 C   0  0  0  0  0  0  0  0  0  0  0  0
    1.8931   -7.9265   16.2047 C   0  0  0  0  0  0  0  0  0  0  0  0
    2.4396   -9.0801   16.7132 C   0  0  0  0  0  0  0  0  0  0  0  0
   -0.2575   -8.6234   16.8582 C   0  0  0  0  0  0  0  0  0  0  0  0
    4.0614   -7.0367   27.0106 N   0  0  0  0  0  0  0  0  0  0  0  0
   -2.9133  -11.6279   18.7578 C   0  0  0  0  0  0  0  0  0  0  0  0
    4.5688  -10.1291   29.5758 C   0  0  0  0  0  0  0  0  0  0  0  0
    2.1008   -9.0410   29.1852 N   0  0  0  0  0  0  0  0  0  0  0  0
    3.4829  -10.5697   30.2091 N   0  0  0  0  0  0  0  0  0  0  0  0
   -0.3363   -6.1172   27.5628 C   0  0  0  0  0  0  0  0  0  0  0  0
    3.0331   -7.4400   27.6362 C   0  0  0  0  0  0  0  0  0  0  0  0
    5.4553   -8.5933   27.9644 C   0  0  0  0  0  0  0  0  0  0  0  0
   -2.3870  -12.8440   19.2512 C   0  0  0  0  0  0  0  0  0  0  0  0
    0.5331   -7.6964   16.2751 C   0  0  0  0  0  0  0  0  0  0  0  0
   -0.6740  -10.8737   18.0482 C   0  0  0  0  0  0  0  0  0  0  0  0
    5.6751  -10.5870   29.7637 O   0  0  0  0  0  0  0  0  0  0  0  0
    1.7612   -5.6483   26.7172 C   0  0  0  0  0  0  0  0  0  0  0  0
    0.2221   -9.8326   17.4055 C   0  0  0  0  0  0  0  0  0  0  0  0
    4.3850   -9.0730   28.6745 C   0  0  0  0  0  0  0  0  0  0  0  0
  1  7  4  0
  1 22  4  0
  2 17  4  0
  2 20  4  0
  2 28  4  0
  3  6  1  0
  3 19  1  0
  4 19  1  0
  4 26  1  0
  5 17  4  0
  5 18  4  0
  6 20  1  0
  6 26  1  0
  7 24  4  0
  8 15  4  0
  8 24  4  0
  9 14  4  0
  9 21  4  0
 10 12  4  0
 10 27  4  0
 11 12  4  0
 11 23  4  0
 13 23  4  0
 13 27  4  0
 14 20  4  0
 15 22  4  0
 16 18  4  0
 16 25  2  0
 16 28  4  0
 21 28  4  0
 24 27  1  0
M  END
$$$$

 Created by Python create_sdf_string function

 28 31  0  0  0  0  0  0  0  0999 V2000
   -1.0054  -13.0622   19.1198 C   0  0  0  0  0  0  0  0  0  0  0  0
    3.1478   -8.5360   28.5161 C   0  0  0  0  0  0  0  0  0  0  0  0
    0.5798   -7.1906   27.9330 C   0  0  0  0  0  0  0  0  0  0  0  0
    0.3978   -5.1561   26.6955 C   0  0  0  0  0  0  0  0  0  0  0  0
    2.3063  -10.0533   30.0125 C   0  0  0  0  0  0  0  0  0  0  0  0
    1.8591   -6.8254   27.4685 N   0  0  0  0  0  0  0  0  0  0  0  0
   -0.2167  -12.1055   18.5568 C   0  0  0  0  0  0  0  0  0  0  0  0
   -2.0661  -10.6994   18.1916 C   0  0  0  0  0  0  0  0  0  0  0  0
    5.2703   -7.5691   27.1123 C   0  0  0  0  0  0  0  0  0  0  0  0
    1.6204   -9.9887   17.2935 C   0  0  0  0  0  0  0  0  0  0  0  0
    1.8931   -7.9265   16.2047 C   0  0  0  0  0  0  0  0  0  0  0  0
    2.4396   -9.0801   16.7132 C   0  0  0  0  0  0  0  0  0  0  0  0
   -0.2575   -8.6234   16.8582 C   0  0  0  0  0  0  0  0  0  0  0  0
    4.0614   -7.0367   27.0106 N   0  0  0  0  0  0  0  0  0  0  0  0
   -2.9133  -11.6279   18.7578 C   0  0  0  0  0  0  0  0  0  0  0  0
    4.5688  -10.1291   29.5758 C   0  0  0  0  0  0  0  0  0  0  0  0
    2.1008   -9.0410   29.1852 N   0  0  0  0  0  0  0  0  0  0  0  0
    3.4829  -10.5697   30.2091 N   0  0  0  0  0  0  0  0  0  0  0  0
   -0.3363   -6.1172   27.5628 C   0  0  0  0  0  0  0  0  0  0  0  0
    3.0331   -7.4400   27.6362 C   0  0  0  0  0  0  0  0  0  0  0  0
    5.4553   -8.5933   27.9644 C   0  0  0  0  0  0  0  0  0  0  0  0
   -2.3870  -12.8440   19.2512 C   0  0  0  0  0  0  0  0  0  0  0  0
    0.5331   -7.6964   16.2751 C   0  0  0  0  0  0  0  0  0  0  0  0
   -0.6740  -10.8737   18.0482 C   0  0  0  0  0  0  0  0  0  0  0  0
    5.6751  -10.5870   29.7637 O   0  0  0  0  0  0  0  0  0  0  0  0
    1.7612   -5.6483   26.7172 C   0  0  0  0  0  0  0  0  0  0  0  0
    0.2221   -9.8326   17.4055 C   0  0  0  0  0  0  0  0  0  0  0  0
    4.3850   -9.0730   28.6745 C   0  0  0  0  0  0  0  0  0  0  0  0
  1  7  4  0
  1 22  4  0
  2 17  4  0
  2 20  4  0
  2 28  4  0
  3  6  1  0
  3 19  1  0
  4 19  1  0
  4 26  1  0
  5 17  4  0
  5 18  4  0
  6 20  1  0
  6 26  1  0
  7 24  4  0
  8 15  4  0
  8 24  4  0
  9 14  4  0
  9 21  4  0
 10 12  4  0
 10 27  4  0
 11 12  4  0
 11 23  4  0
 13 23  4  0
 13 27  4  0
 14 20  4  0
 15 22  4  0
 16 18  4  0
 16 25  2  0
 16 28  4  0
 21 28  4  0
 24 27  1  0
M  END
$$$$

 Created by Python create_sdf_string function

 28 31  0  0  0  0  0  0  0  0999 V2000
   -1.0054  -13.0622   19.1198 C   0  0  0  0  0  0  0  0  0  0  0  0
    3.1478   -8.5360   28.5161 C   0  0  0  0  0  0  0  0  0  0  0  0
    0.5798   -7.1906   27.9330 C   0  0  0  0  0  0  0  0  0  0  0  0
    0.3978   -5.1561   26.6955 C   0  0  0  0  0  0  0  0  0  0  0  0
    2.3063  -10.0533   30.0125 C   0  0  0  0  0  0  0  0  0  0  0  0
    1.8591   -6.8254   27.4685 N   0  0  0  0  0  0  0  0  0  0  0  0
   -0.2167  -12.1055   18.5568 C   0  0  0  0  0  0  0  0  0  0  0  0
   -2.0661  -10.6994   18.1916 C   0  0  0  0  0  0  0  0  0  0  0  0
    5.2703   -7.5691   27.1123 C   0  0  0  0  0  0  0  0  0  0  0  0
    1.6204   -9.9887   17.2935 C   0  0  0  0  0  0  0  0  0  0  0  0
    1.8931   -7.9265   16.2047 C   0  0  0  0  0  0  0  0  0  0  0  0
    2.4396   -9.0801   16.7132 C   0  0  0  0  0  0  0  0  0  0  0  0
   -0.2575   -8.6234   16.8582 C   0  0  0  0  0  0  0  0  0  0  0  0
    4.0614   -7.0367   27.0106 N   0  0  0  0  0  0  0  0  0  0  0  0
   -2.9133  -11.6279   18.7578 C   0  0  0  0  0  0  0  0  0  0  0  0
    4.5688  -10.1291   29.5758 C   0  0  0  0  0  0  0  0  0  0  0  0
    2.1008   -9.0410   29.1852 N   0  0  0  0  0  0  0  0  0  0  0  0
    3.4829  -10.5697   30.2091 N   0  0  0  0  0  0  0  0  0  0  0  0
   -0.3363   -6.1172   27.5628 C   0  0  0  0  0  0  0  0  0  0  0  0
    3.0331   -7.4400   27.6362 C   0  0  0  0  0  0  0  0  0  0  0  0
    5.4553   -8.5933   27.9644 C   0  0  0  0  0  0  0  0  0  0  0  0
   -2.3870  -12.8440   19.2512 C   0  0  0  0  0  0  0  0  0  0  0  0
    0.5331   -7.6964   16.2751 C   0  0  0  0  0  0  0  0  0  0  0  0
   -0.6740  -10.8737   18.0482 C   0  0  0  0  0  0  0  0  0  0  0  0
    5.6751  -10.5870   29.7637 O   0  0  0  0  0  0  0  0  0  0  0  0
    1.7612   -5.6483   26.7172 C   0  0  0  0  0  0  0  0  0  0  0  0
    0.2221   -9.8326   17.4055 C   0  0  0  0  0  0  0  0  0  0  0  0
    4.3850   -9.0730   28.6745 C   0  0  0  0  0  0  0  0  0  0  0  0
  1  7  4  0
  1 22  4  0
  2 17  4  0
  2 20  4  0
  2 28  4  0
  3  6  1  0
  3 19  1  0
  4 19  1  0
  4 26  1  0
  5 17  4  0
  5 18  4  0
  6 20  1  0
  6 26  1  0
  7 24  4  0
  8 15  4  0
  8 24  4  0
  9 14  4  0
  9 21  4  0
 10 12  4  0
 10 27  4  0
 11 12  4  0
 11 23  4  0
 13 23  4  0
 13 27  4  0
 14 20  4  0
 15 22  4  0
 16 18  4  0
 16 25  2  0
 16 28  4  0
 21 28  4  0
 24 27  1  0
M  END
$$$$

 Created by Python create_sdf_string function

 28 31  0  0  0  0  0  0  0  0999 V2000
   -1.0054  -13.0622   19.1198 C   0  0  0  0  0  0  0  0  0  0  0  0
    3.1478   -8.5360   28.5161 C   0  0  0  0  0  0  0  0  0  0  0  0
    0.5798   -7.1906   27.9330 C   0  0  0  0  0  0  0  0  0  0  0  0
    0.3978   -5.1561   26.6955 C   0  0  0  0  0  0  0  0  0  0  0  0
    2.3063  -10.0533   30.0125 C   0  0  0  0  0  0  0  0  0  0  0  0
    1.8591   -6.8254   27.4685 N   0  0  0  0  0  0  0  0  0  0  0  0
   -0.2167  -12.1055   18.5568 C   0  0  0  0  0  0  0  0  0  0  0  0
   -2.0661  -10.6994   18.1916 C   0  0  0  0  0  0  0  0  0  0  0  0
    5.2703   -7.5691   27.1123 C   0  0  0  0  0  0  0  0  0  0  0  0
    1.6204   -9.9887   17.2935 C   0  0  0  0  0  0  0  0  0  0  0  0
    1.8931   -7.9265   16.2047 C   0  0  0  0  0  0  0  0  0  0  0  0
    2.4396   -9.0801   16.7132 C   0  0  0  0  0  0  0  0  0  0  0  0
   -0.2575   -8.6234   16.8582 C   0  0  0  0  0  0  0  0  0  0  0  0
    4.0614   -7.0367   27.0106 N   0  0  0  0  0  0  0  0  0  0  0  0
   -2.9133  -11.6279   18.7578 C   0  0  0  0  0  0  0  0  0  0  0  0
    4.5688  -10.1291   29.5758 C   0  0  0  0  0  0  0  0  0  0  0  0
    2.1008   -9.0410   29.1852 N   0  0  0  0  0  0  0  0  0  0  0  0
    3.4829  -10.5697   30.2091 N   0  0  0  0  0  0  0  0  0  0  0  0
   -0.3363   -6.1172   27.5628 C   0  0  0  0  0  0  0  0  0  0  0  0
    3.0331   -7.4400   27.6362 C   0  0  0  0  0  0  0  0  0  0  0  0
    5.4553   -8.5933   27.9644 C   0  0  0  0  0  0  0  0  0  0  0  0
   -2.3870  -12.8440   19.2512 C   0  0  0  0  0  0  0  0  0  0  0  0
    0.5331   -7.6964   16.2751 C   0  0  0  0  0  0  0  0  0  0  0  0
   -0.6740  -10.8737   18.0482 C   0  0  0  0  0  0  0  0  0  0  0  0
    5.6751  -10.5870   29.7637 O   0  0  0  0  0  0  0  0  0  0  0  0
    1.7612   -5.6483   26.7172 C   0  0  0  0  0  0  0  0  0  0  0  0
    0.2221   -9.8326   17.4055 C   0  0  0  0  0  0  0  0  0  0  0  0
    4.3850   -9.0730   28.6745 C   0  0  0  0  0  0  0  0  0  0  0  0
  1  7  4  0
  1 22  4  0
  2 17  4  0
  2 20  4  0
  2 28  4  0
  3  6  1  0
  3 19  1  0
  4 19  1  0
  4 26  1  0
  5 17  4  0
  5 18  4  0
  6 20  1  0
  6 26  1  0
  7 24  4  0
  8 15  4  0
  8 24  4  0
  9 14  4  0
  9 21  4  0
 10 12  4  0
 10 27  4  0
 11 12  4  0
 11 23  4  0
 13 23  4  0
 13 27  4  0
 14 20  4  0
 15 22  4  0
 16 18  4  0
 16 25  2  0
 16 28  4  0
 21 28  4  0
 24 27  1  0
M  END
$$$$

 Created by Python create_sdf_string function

 28 31  0  0  0  0  0  0  0  0999 V2000
   -1.0054  -13.0622   19.1198 C   0  0  0  0  0  0  0  0  0  0  0  0
    3.1478   -8.5360   28.5161 C   0  0  0  0  0  0  0  0  0  0  0  0
    0.5798   -7.1906   27.9330 C   0  0  0  0  0  0  0  0  0  0  0  0
    0.3978   -5.1561   26.6955 C   0  0  0  0  0  0  0  0  0  0  0  0
    2.3063  -10.0533   30.0125 C   0  0  0  0  0  0  0  0  0  0  0  0
    1.8591   -6.8254   27.4685 N   0  0  0  0  0  0  0  0  0  0  0  0
   -0.2167  -12.1055   18.5568 C   0  0  0  0  0  0  0  0  0  0  0  0
   -2.0661  -10.6994   18.1916 C   0  0  0  0  0  0  0  0  0  0  0  0
    5.2703   -7.5691   27.1123 C   0  0  0  0  0  0  0  0  0  0  0  0
    1.6204   -9.9887   17.2935 C   0  0  0  0  0  0  0  0  0  0  0  0
    1.8931   -7.9265   16.2047 C   0  0  0  0  0  0  0  0  0  0  0  0
    2.4396   -9.0801   16.7132 C   0  0  0  0  0  0  0  0  0  0  0  0
   -0.2575   -8.6234   16.8582 C   0  0  0  0  0  0  0  0  0  0  0  0
    4.0614   -7.0367   27.0106 N   0  0  0  0  0  0  0  0  0  0  0  0
   -2.9133  -11.6279   18.7578 C   0  0  0  0  0  0  0  0  0  0  0  0
    4.5688  -10.1291   29.5758 C   0  0  0  0  0  0  0  0  0  0  0  0
    2.1008   -9.0410   29.1852 N   0  0  0  0  0  0  0  0  0  0  0  0
    3.4829  -10.5697   30.2091 N   0  0  0  0  0  0  0  0  0  0  0  0
   -0.3363   -6.1172   27.5628 C   0  0  0  0  0  0  0  0  0  0  0  0
    3.0331   -7.4400   27.6362 C   0  0  0  0  0  0  0  0  0  0  0  0
    5.4553   -8.5933   27.9644 C   0  0  0  0  0  0  0  0  0  0  0  0
   -2.3870  -12.8440   19.2512 C   0  0  0  0  0  0  0  0  0  0  0  0
    0.5331   -7.6964   16.2751 C   0  0  0  0  0  0  0  0  0  0  0  0
   -0.6740  -10.8737   18.0482 C   0  0  0  0  0  0  0  0  0  0  0  0
    5.6751  -10.5870   29.7637 O   0  0  0  0  0  0  0  0  0  0  0  0
    1.7612   -5.6483   26.7172 C   0  0  0  0  0  0  0  0  0  0  0  0
    0.2221   -9.8326   17.4055 C   0  0  0  0  0  0  0  0  0  0  0  0
    4.3850   -9.0730   28.6745 C   0  0  0  0  0  0  0  0  0  0  0  0
  1  7  4  0
  1 22  4  0
  2 17  4  0
  2 20  4  0
  2 28  4  0
  3  6  1  0
  3 19  1  0
  4 19  1  0
  4 26  1  0
  5 17  4  0
  5 18  4  0
  6 20  1  0
  6 26  1  0
  7 24  4  0
  8 15  4  0
  8 24  4  0
  9 14  4  0
  9 21  4  0
 10 12  4  0
 10 27  4  0
 11 12  4  0
 11 23  4  0
 13 23  4  0
 13 27  4  0
 14 20  4  0
 15 22  4  0
 16 18  4  0
 16 25  2  0
 16 28  4  0
 21 28  4  0
 24 27  1  0
M  END
$$$$

 Created by Python create_sdf_string function

 28 31  0  0  0  0  0  0  0  0999 V2000
   -1.0054  -13.0622   19.1198 C   0  0  0  0  0  0  0  0  0  0  0  0
    3.1478   -8.5360   28.5161 C   0  0  0  0  0  0  0  0  0  0  0  0
    0.5798   -7.1906   27.9330 C   0  0  0  0  0  0  0  0  0  0  0  0
    0.3978   -5.1561   26.6955 C   0  0  0  0  0  0  0  0  0  0  0  0
    2.3063  -10.0533   30.0125 C   0  0  0  0  0  0  0  0  0  0  0  0
    1.8591   -6.8254   27.4685 N   0  0  0  0  0  0  0  0  0  0  0  0
   -0.2167  -12.1055   18.5568 C   0  0  0  0  0  0  0  0  0  0  0  0
   -2.0661  -10.6994   18.1916 C   0  0  0  0  0  0  0  0  0  0  0  0
    5.2703   -7.5691   27.1123 C   0  0  0  0  0  0  0  0  0  0  0  0
    1.6204   -9.9887   17.2935 C   0  0  0  0  0  0  0  0  0  0  0  0
    1.8931   -7.9265   16.2047 C   0  0  0  0  0  0  0  0  0  0  0  0
    2.4396   -9.0801   16.7132 C   0  0  0  0  0  0  0  0  0  0  0  0
   -0.2575   -8.6234   16.8582 C   0  0  0  0  0  0  0  0  0  0  0  0
    4.0614   -7.0367   27.0106 N   0  0  0  0  0  0  0  0  0  0  0  0
   -2.9133  -11.6279   18.7578 C   0  0  0  0  0  0  0  0  0  0  0  0
    4.5688  -10.1291   29.5758 C   0  0  0  0  0  0  0  0  0  0  0  0
    2.1008   -9.0410   29.1852 N   0  0  0  0  0  0  0  0  0  0  0  0
    3.4829  -10.5697   30.2091 N   0  0  0  0  0  0  0  0  0  0  0  0
   -0.3363   -6.1172   27.5628 C   0  0  0  0  0  0  0  0  0  0  0  0
    3.0331   -7.4400   27.6362 C   0  0  0  0  0  0  0  0  0  0  0  0
    5.4553   -8.5933   27.9644 C   0  0  0  0  0  0  0  0  0  0  0  0
   -2.3870  -12.8440   19.2512 C   0  0  0  0  0  0  0  0  0  0  0  0
    0.5331   -7.6964   16.2751 C   0  0  0  0  0  0  0  0  0  0  0  0
   -0.6740  -10.8737   18.0482 C   0  0  0  0  0  0  0  0  0  0  0  0
    5.6751  -10.5870   29.7637 O   0  0  0  0  0  0  0  0  0  0  0  0
    1.7612   -5.6483   26.7172 C   0  0  0  0  0  0  0  0  0  0  0  0
    0.2221   -9.8326   17.4055 C   0  0  0  0  0  0  0  0  0  0  0  0
    4.3850   -9.0730   28.6745 C   0  0  0  0  0  0  0  0  0  0  0  0
  1  7  4  0
  1 22  4  0
  2 17  4  0
  2 20  4  0
  2 28  4  0
  3  6  1  0
  3 19  1  0
  4 19  1  0
  4 26  1  0
  5 17  4  0
  5 18  4  0
  6 20  1  0
  6 26  1  0
  7 24  4  0
  8 15  4  0
  8 24  4  0
  9 14  4  0
  9 21  4  0
 10 12  4  0
 10 27  4  0
 11 12  4  0
 11 23  4  0
 13 23  4  0
 13 27  4  0
 14 20  4  0
 15 22  4  0
 16 18  4  0
 16 25  2  0
 16 28  4  0
 21 28  4  0
 24 27  1  0
M  END
$$$$

 Created by Python create_sdf_string function

 28 31  0  0  0  0  0  0  0  0999 V2000
   -1.0054  -13.0622   19.1198 C   0  0  0  0  0  0  0  0  0  0  0  0
    3.1478   -8.5360   28.5161 C   0  0  0  0  0  0  0  0  0  0  0  0
    0.5798   -7.1906   27.9330 C   0  0  0  0  0  0  0  0  0  0  0  0
    0.3978   -5.1561   26.6955 C   0  0  0  0  0  0  0  0  0  0  0  0
    2.3063  -10.0533   30.0125 C   0  0  0  0  0  0  0  0  0  0  0  0
    1.8591   -6.8254   27.4685 N   0  0  0  0  0  0  0  0  0  0  0  0
   -0.2167  -12.1055   18.5568 C   0  0  0  0  0  0  0  0  0  0  0  0
   -2.0661  -10.6994   18.1916 C   0  0  0  0  0  0  0  0  0  0  0  0
    5.2703   -7.5691   27.1123 C   0  0  0  0  0  0  0  0  0  0  0  0
    1.6204   -9.9887   17.2935 C   0  0  0  0  0  0  0  0  0  0  0  0
    1.8931   -7.9265   16.2047 C   0  0  0  0  0  0  0  0  0  0  0  0
    2.4396   -9.0801   16.7132 C   0  0  0  0  0  0  0  0  0  0  0  0
   -0.2575   -8.6234   16.8582 C   0  0  0  0  0  0  0  0  0  0  0  0
    4.0614   -7.0367   27.0106 N   0  0  0  0  0  0  0  0  0  0  0  0
   -2.9133  -11.6279   18.7578 C   0  0  0  0  0  0  0  0  0  0  0  0
    4.5688  -10.1291   29.5758 C   0  0  0  0  0  0  0  0  0  0  0  0
    2.1008   -9.0410   29.1852 N   0  0  0  0  0  0  0  0  0  0  0  0
    3.4829  -10.5697   30.2091 N   0  0  0  0  0  0  0  0  0  0  0  0
   -0.3363   -6.1172   27.5628 C   0  0  0  0  0  0  0  0  0  0  0  0
    3.0331   -7.4400   27.6362 C   0  0  0  0  0  0  0  0  0  0  0  0
    5.4553   -8.5933   27.9644 C   0  0  0  0  0  0  0  0  0  0  0  0
   -2.3870  -12.8440   19.2512 C   0  0  0  0  0  0  0  0  0  0  0  0
    0.5331   -7.6964   16.2751 C   0  0  0  0  0  0  0  0  0  0  0  0
   -0.6740  -10.8737   18.0482 C   0  0  0  0  0  0  0  0  0  0  0  0
    5.6751  -10.5870   29.7637 O   0  0  0  0  0  0  0  0  0  0  0  0
    1.7612   -5.6483   26.7172 C   0  0  0  0  0  0  0  0  0  0  0  0
    0.2221   -9.8326   17.4055 C   0  0  0  0  0  0  0  0  0  0  0  0
    4.3850   -9.0730   28.6745 C   0  0  0  0  0  0  0  0  0  0  0  0
  1  7  4  0
  1 22  4  0
  2 17  4  0
  2 20  4  0
  2 28  4  0
  3  6  1  0
  3 19  1  0
  4 19  1  0
  4 26  1  0
  5 17  4  0
  5 18  4  0
  6 20  1  0
  6 26  1  0
  7 24  4  0
  8 15  4  0
  8 24  4  0
  9 14  4  0
  9 21  4  0
 10 12  4  0
 10 27  4  0
 11 12  4  0
 11 23  4  0
 13 23  4  0
 13 27  4  0
 14 20  4  0
 15 22  4  0
 16 18  4  0
 16 25  2  0
 16 28  4  0
 21 28  4  0
 24 27  1  0
M  END
$$$$

 Created by Python create_sdf_string function

 28 31  0  0  0  0  0  0  0  0999 V2000
   -1.0054  -13.0622   19.1198 C   0  0  0  0  0  0  0  0  0  0  0  0
    3.1478   -8.5360   28.5161 C   0  0  0  0  0  0  0  0  0  0  0  0
    0.5798   -7.1906   27.9330 C   0  0  0  0  0  0  0  0  0  0  0  0
    0.3978   -5.1561   26.6955 C   0  0  0  0  0  0  0  0  0  0  0  0
    2.3063  -10.0533   30.0125 C   0  0  0  0  0  0  0  0  0  0  0  0
    1.8591   -6.8254   27.4685 N   0  0  0  0  0  0  0  0  0  0  0  0
   -0.2167  -12.1055   18.5568 C   0  0  0  0  0  0  0  0  0  0  0  0
   -2.0661  -10.6994   18.1916 C   0  0  0  0  0  0  0  0  0  0  0  0
    5.2703   -7.5691   27.1123 C   0  0  0  0  0  0  0  0  0  0  0  0
    1.6204   -9.9887   17.2935 C   0  0  0  0  0  0  0  0  0  0  0  0
    1.8931   -7.9265   16.2047 C   0  0  0  0  0  0  0  0  0  0  0  0
    2.4396   -9.0801   16.7132 C   0  0  0  0  0  0  0  0  0  0  0  0
   -0.2575   -8.6234   16.8582 C   0  0  0  0  0  0  0  0  0  0  0  0
    4.0614   -7.0367   27.0106 N   0  0  0  0  0  0  0  0  0  0  0  0
   -2.9133  -11.6279   18.7578 C   0  0  0  0  0  0  0  0  0  0  0  0
    4.5688  -10.1291   29.5758 C   0  0  0  0  0  0  0  0  0  0  0  0
    2.1008   -9.0410   29.1852 N   0  0  0  0  0  0  0  0  0  0  0  0
    3.4829  -10.5697   30.2091 N   0  0  0  0  0  0  0  0  0  0  0  0
   -0.3363   -6.1172   27.5628 C   0  0  0  0  0  0  0  0  0  0  0  0
    3.0331   -7.4400   27.6362 C   0  0  0  0  0  0  0  0  0  0  0  0
    5.4553   -8.5933   27.9644 C   0  0  0  0  0  0  0  0  0  0  0  0
   -2.3870  -12.8440   19.2512 C   0  0  0  0  0  0  0  0  0  0  0  0
    0.5331   -7.6964   16.2751 C   0  0  0  0  0  0  0  0  0  0  0  0
   -0.6740  -10.8737   18.0482 C   0  0  0  0  0  0  0  0  0  0  0  0
    5.6751  -10.5870   29.7637 O   0  0  0  0  0  0  0  0  0  0  0  0
    1.7612   -5.6483   26.7172 C   0  0  0  0  0  0  0  0  0  0  0  0
    0.2221   -9.8326   17.4055 C   0  0  0  0  0  0  0  0  0  0  0  0
    4.3850   -9.0730   28.6745 C   0  0  0  0  0  0  0  0  0  0  0  0
  1  7  4  0
  1 22  4  0
  2 17  4  0
  2 20  4  0
  2 28  4  0
  3  6  1  0
  3 19  1  0
  4 19  1  0
  4 26  1  0
  5 17  4  0
  5 18  4  0
  6 20  1  0
  6 26  1  0
  7 24  4  0
  8 15  4  0
  8 24  4  0
  9 14  4  0
  9 21  4  0
 10 12  4  0
 10 27  4  0
 11 12  4  0
 11 23  4  0
 13 23  4  0
 13 27  4  0
 14 20  4  0
 15 22  4  0
 16 18  4  0
 16 25  2  0
 16 28  4  0
 21 28  4  0
 24 27  1  0
M  END
$$$$

 Created by Python create_sdf_string function

 28 31  0  0  0  0  0  0  0  0999 V2000
   -1.0054  -13.0622   19.1198 C   0  0  0  0  0  0  0  0  0  0  0  0
    3.1478   -8.5360   28.5161 C   0  0  0  0  0  0  0  0  0  0  0  0
    0.5798   -7.1906   27.9330 C   0  0  0  0  0  0  0  0  0  0  0  0
    0.3978   -5.1561   26.6955 C   0  0  0  0  0  0  0  0  0  0  0  0
    2.3063  -10.0533   30.0125 C   0  0  0  0  0  0  0  0  0  0  0  0
    1.8591   -6.8254   27.4685 N   0  0  0  0  0  0  0  0  0  0  0  0
   -0.2167  -12.1055   18.5568 C   0  0  0  0  0  0  0  0  0  0  0  0
   -2.0661  -10.6994   18.1916 C   0  0  0  0  0  0  0  0  0  0  0  0
    5.2703   -7.5691   27.1123 C   0  0  0  0  0  0  0  0  0  0  0  0
    1.6204   -9.9887   17.2935 C   0  0  0  0  0  0  0  0  0  0  0  0
    1.8931   -7.9265   16.2047 C   0  0  0  0  0  0  0  0  0  0  0  0
    2.4396   -9.0801   16.7132 C   0  0  0  0  0  0  0  0  0  0  0  0
   -0.2575   -8.6234   16.8582 C   0  0  0  0  0  0  0  0  0  0  0  0
    4.0614   -7.0367   27.0106 N   0  0  0  0  0  0  0  0  0  0  0  0
   -2.9133  -11.6279   18.7578 C   0  0  0  0  0  0  0  0  0  0  0  0
    4.5688  -10.1291   29.5758 C   0  0  0  0  0  0  0  0  0  0  0  0
    2.1008   -9.0410   29.1852 N   0  0  0  0  0  0  0  0  0  0  0  0
    3.4829  -10.5697   30.2091 N   0  0  0  0  0  0  0  0  0  0  0  0
   -0.3363   -6.1172   27.5628 C   0  0  0  0  0  0  0  0  0  0  0  0
    3.0331   -7.4400   27.6362 C   0  0  0  0  0  0  0  0  0  0  0  0
    5.4553   -8.5933   27.9644 C   0  0  0  0  0  0  0  0  0  0  0  0
   -2.3870  -12.8440   19.2512 C   0  0  0  0  0  0  0  0  0  0  0  0
    0.5331   -7.6964   16.2751 C   0  0  0  0  0  0  0  0  0  0  0  0
   -0.6740  -10.8737   18.0482 C   0  0  0  0  0  0  0  0  0  0  0  0
    5.6751  -10.5870   29.7637 O   0  0  0  0  0  0  0  0  0  0  0  0
    1.7612   -5.6483   26.7172 C   0  0  0  0  0  0  0  0  0  0  0  0
    0.2221   -9.8326   17.4055 C   0  0  0  0  0  0  0  0  0  0  0  0
    4.3850   -9.0730   28.6745 C   0  0  0  0  0  0  0  0  0  0  0  0
  1  7  4  0
  1 22  4  0
  2 17  4  0
  2 20  4  0
  2 28  4  0
  3  6  1  0
  3 19  1  0
  4 19  1  0
  4 26  1  0
  5 17  4  0
  5 18  4  0
  6 20  1  0
  6 26  1  0
  7 24  4  0
  8 15  4  0
  8 24  4  0
  9 14  4  0
  9 21  4  0
 10 12  4  0
 10 27  4  0
 11 12  4  0
 11 23  4  0
 13 23  4  0
 13 27  4  0
 14 20  4  0
 15 22  4  0
 16 18  4  0
 16 25  2  0
 16 28  4  0
 21 28  4  0
 24 27  1  0
M  END
$$$$

 Created by Python create_sdf_string function

 28 31  0  0  0  0  0  0  0  0999 V2000
   -1.0054  -13.0622   19.1198 C   0  0  0  0  0  0  0  0  0  0  0  0
    3.1478   -8.5360   28.5161 C   0  0  0  0  0  0  0  0  0  0  0  0
    0.5798   -7.1906   27.9330 C   0  0  0  0  0  0  0  0  0  0  0  0
    0.3978   -5.1561   26.6955 C   0  0  0  0  0  0  0  0  0  0  0  0
    2.3063  -10.0533   30.0125 C   0  0  0  0  0  0  0  0  0  0  0  0
    1.8591   -6.8254   27.4685 N   0  0  0  0  0  0  0  0  0  0  0  0
   -0.2167  -12.1055   18.5568 C   0  0  0  0  0  0  0  0  0  0  0  0
   -2.0661  -10.6994   18.1916 C   0  0  0  0  0  0  0  0  0  0  0  0
    5.2703   -7.5691   27.1123 C   0  0  0  0  0  0  0  0  0  0  0  0
    1.6204   -9.9887   17.2935 C   0  0  0  0  0  0  0  0  0  0  0  0
    1.8931   -7.9265   16.2047 C   0  0  0  0  0  0  0  0  0  0  0  0
    2.4396   -9.0801   16.7132 C   0  0  0  0  0  0  0  0  0  0  0  0
   -0.2575   -8.6234   16.8582 C   0  0  0  0  0  0  0  0  0  0  0  0
    4.0614   -7.0367   27.0106 N   0  0  0  0  0  0  0  0  0  0  0  0
   -2.9133  -11.6279   18.7578 C   0  0  0  0  0  0  0  0  0  0  0  0
    4.5688  -10.1291   29.5758 C   0  0  0  0  0  0  0  0  0  0  0  0
    2.1008   -9.0410   29.1852 N   0  0  0  0  0  0  0  0  0  0  0  0
    3.4829  -10.5697   30.2091 N   0  0  0  0  0  0  0  0  0  0  0  0
   -0.3363   -6.1172   27.5628 C   0  0  0  0  0  0  0  0  0  0  0  0
    3.0331   -7.4400   27.6362 C   0  0  0  0  0  0  0  0  0  0  0  0
    5.4553   -8.5933   27.9644 C   0  0  0  0  0  0  0  0  0  0  0  0
   -2.3870  -12.8440   19.2512 C   0  0  0  0  0  0  0  0  0  0  0  0
    0.5331   -7.6964   16.2751 C   0  0  0  0  0  0  0  0  0  0  0  0
   -0.6740  -10.8737   18.0482 C   0  0  0  0  0  0  0  0  0  0  0  0
    5.6751  -10.5870   29.7637 O   0  0  0  0  0  0  0  0  0  0  0  0
    1.7612   -5.6483   26.7172 C   0  0  0  0  0  0  0  0  0  0  0  0
    0.2221   -9.8326   17.4055 C   0  0  0  0  0  0  0  0  0  0  0  0
    4.3850   -9.0730   28.6745 C   0  0  0  0  0  0  0  0  0  0  0  0
  1  7  4  0
  1 22  4  0
  2 17  4  0
  2 20  4  0
  2 28  4  0
  3  6  1  0
  3 19  1  0
  4 19  1  0
  4 26  1  0
  5 17  4  0
  5 18  4  0
  6 20  1  0
  6 26  1  0
  7 24  4  0
  8 15  4  0
  8 24  4  0
  9 14  4  0
  9 21  4  0
 10 12  4  0
 10 27  4  0
 11 12  4  0
 11 23  4  0
 13 23  4  0
 13 27  4  0
 14 20  4  0
 15 22  4  0
 16 18  4  0
 16 25  2  0
 16 28  4  0
 21 28  4  0
 24 27  1  0
M  END
$$$$

 Created by Python create_sdf_string function

 28 31  0  0  0  0  0  0  0  0999 V2000
   -1.0054  -13.0622   19.1198 C   0  0  0  0  0  0  0  0  0  0  0  0
    3.1478   -8.5360   28.5161 C   0  0  0  0  0  0  0  0  0  0  0  0
    0.5798   -7.1906   27.9330 C   0  0  0  0  0  0  0  0  0  0  0  0
    0.3978   -5.1561   26.6955 C   0  0  0  0  0  0  0  0  0  0  0  0
    2.3063  -10.0533   30.0125 C   0  0  0  0  0  0  0  0  0  0  0  0
    1.8591   -6.8254   27.4685 N   0  0  0  0  0  0  0  0  0  0  0  0
   -0.2167  -12.1055   18.5568 C   0  0  0  0  0  0  0  0  0  0  0  0
   -2.0661  -10.6994   18.1916 C   0  0  0  0  0  0  0  0  0  0  0  0
    5.2703   -7.5691   27.1123 C   0  0  0  0  0  0  0  0  0  0  0  0
    1.6204   -9.9887   17.2935 C   0  0  0  0  0  0  0  0  0  0  0  0
    1.8931   -7.9265   16.2047 C   0  0  0  0  0  0  0  0  0  0  0  0
    2.4396   -9.0801   16.7132 C   0  0  0  0  0  0  0  0  0  0  0  0
   -0.2575   -8.6234   16.8582 C   0  0  0  0  0  0  0  0  0  0  0  0
    4.0614   -7.0367   27.0106 N   0  0  0  0  0  0  0  0  0  0  0  0
   -2.9133  -11.6279   18.7578 C   0  0  0  0  0  0  0  0  0  0  0  0
    4.5688  -10.1291   29.5758 C   0  0  0  0  0  0  0  0  0  0  0  0
    2.1008   -9.0410   29.1852 N   0  0  0  0  0  0  0  0  0  0  0  0
    3.4829  -10.5697   30.2091 N   0  0  0  0  0  0  0  0  0  0  0  0
   -0.3363   -6.1172   27.5628 C   0  0  0  0  0  0  0  0  0  0  0  0
    3.0331   -7.4400   27.6362 C   0  0  0  0  0  0  0  0  0  0  0  0
    5.4553   -8.5933   27.9644 C   0  0  0  0  0  0  0  0  0  0  0  0
   -2.3870  -12.8440   19.2512 C   0  0  0  0  0  0  0  0  0  0  0  0
    0.5331   -7.6964   16.2751 C   0  0  0  0  0  0  0  0  0  0  0  0
   -0.6740  -10.8737   18.0482 C   0  0  0  0  0  0  0  0  0  0  0  0
    5.6751  -10.5870   29.7637 O   0  0  0  0  0  0  0  0  0  0  0  0
    1.7612   -5.6483   26.7172 C   0  0  0  0  0  0  0  0  0  0  0  0
    0.2221   -9.8326   17.4055 C   0  0  0  0  0  0  0  0  0  0  0  0
    4.3850   -9.0730   28.6745 C   0  0  0  0  0  0  0  0  0  0  0  0
  1  7  4  0
  1 22  4  0
  2 17  4  0
  2 20  4  0
  2 28  4  0
  3  6  1  0
  3 19  1  0
  4 19  1  0
  4 26  1  0
  5 17  4  0
  5 18  4  0
  6 20  1  0
  6 26  1  0
  7 24  4  0
  8 15  4  0
  8 24  4  0
  9 14  4  0
  9 21  4  0
 10 12  4  0
 10 27  4  0
 11 12  4  0
 11 23  4  0
 13 23  4  0
 13 27  4  0
 14 20  4  0
 15 22  4  0
 16 18  4  0
 16 25  2  0
 16 28  4  0
 21 28  4  0
 24 27  1  0
M  END
$$$$

 Created by Python create_sdf_string function

 28 31  0  0  0  0  0  0  0  0999 V2000
   -1.0054  -13.0622   19.1198 C   0  0  0  0  0  0  0  0  0  0  0  0
    3.1478   -8.5360   28.5161 C   0  0  0  0  0  0  0  0  0  0  0  0
    0.5798   -7.1906   27.9330 C   0  0  0  0  0  0  0  0  0  0  0  0
    0.3978   -5.1561   26.6955 C   0  0  0  0  0  0  0  0  0  0  0  0
    2.3063  -10.0533   30.0125 C   0  0  0  0  0  0  0  0  0  0  0  0
    1.8591   -6.8254   27.4685 N   0  0  0  0  0  0  0  0  0  0  0  0
   -0.2167  -12.1055   18.5568 C   0  0  0  0  0  0  0  0  0  0  0  0
   -2.0661  -10.6994   18.1916 C   0  0  0  0  0  0  0  0  0  0  0  0
    5.2703   -7.5691   27.1123 C   0  0  0  0  0  0  0  0  0  0  0  0
    1.6204   -9.9887   17.2935 C   0  0  0  0  0  0  0  0  0  0  0  0
    1.8931   -7.9265   16.2047 C   0  0  0  0  0  0  0  0  0  0  0  0
    2.4396   -9.0801   16.7132 C   0  0  0  0  0  0  0  0  0  0  0  0
   -0.2575   -8.6234   16.8582 C   0  0  0  0  0  0  0  0  0  0  0  0
    4.0614   -7.0367   27.0106 N   0  0  0  0  0  0  0  0  0  0  0  0
   -2.9133  -11.6279   18.7578 C   0  0  0  0  0  0  0  0  0  0  0  0
    4.5688  -10.1291   29.5758 C   0  0  0  0  0  0  0  0  0  0  0  0
    2.1008   -9.0410   29.1852 N   0  0  0  0  0  0  0  0  0  0  0  0
    3.4829  -10.5697   30.2091 N   0  0  0  0  0  0  0  0  0  0  0  0
   -0.3363   -6.1172   27.5628 C   0  0  0  0  0  0  0  0  0  0  0  0
    3.0331   -7.4400   27.6362 C   0  0  0  0  0  0  0  0  0  0  0  0
    5.4553   -8.5933   27.9644 C   0  0  0  0  0  0  0  0  0  0  0  0
   -2.3870  -12.8440   19.2512 C   0  0  0  0  0  0  0  0  0  0  0  0
    0.5331   -7.6964   16.2751 C   0  0  0  0  0  0  0  0  0  0  0  0
   -0.6740  -10.8737   18.0482 C   0  0  0  0  0  0  0  0  0  0  0  0
    5.6751  -10.5870   29.7637 O   0  0  0  0  0  0  0  0  0  0  0  0
    1.7612   -5.6483   26.7172 C   0  0  0  0  0  0  0  0  0  0  0  0
    0.2221   -9.8326   17.4055 C   0  0  0  0  0  0  0  0  0  0  0  0
    4.3850   -9.0730   28.6745 C   0  0  0  0  0  0  0  0  0  0  0  0
  1  7  4  0
  1 22  4  0
  2 17  4  0
  2 20  4  0
  2 28  4  0
  3  6  1  0
  3 19  1  0
  4 19  1  0
  4 26  1  0
  5 17  4  0
  5 18  4  0
  6 20  1  0
  6 26  1  0
  7 24  4  0
  8 15  4  0
  8 24  4  0
  9 14  4  0
  9 21  4  0
 10 12  4  0
 10 27  4  0
 11 12  4  0
 11 23  4  0
 13 23  4  0
 13 27  4  0
 14 20  4  0
 15 22  4  0
 16 18  4  0
 16 25  2  0
 16 28  4  0
 21 28  4  0
 24 27  1  0
M  END
$$$$

 Created by Python create_sdf_string function

 28 31  0  0  0  0  0  0  0  0999 V2000
   -1.0054  -13.0622   19.1198 C   0  0  0  0  0  0  0  0  0  0  0  0
    3.1478   -8.5360   28.5161 C   0  0  0  0  0  0  0  0  0  0  0  0
    0.5798   -7.1906   27.9330 C   0  0  0  0  0  0  0  0  0  0  0  0
    0.3978   -5.1561   26.6955 C   0  0  0  0  0  0  0  0  0  0  0  0
    2.3063  -10.0533   30.0125 C   0  0  0  0  0  0  0  0  0  0  0  0
    1.8591   -6.8254   27.4685 N   0  0  0  0  0  0  0  0  0  0  0  0
   -0.2167  -12.1055   18.5568 C   0  0  0  0  0  0  0  0  0  0  0  0
   -2.0661  -10.6994   18.1916 C   0  0  0  0  0  0  0  0  0  0  0  0
    5.2703   -7.5691   27.1123 C   0  0  0  0  0  0  0  0  0  0  0  0
    1.6204   -9.9887   17.2935 C   0  0  0  0  0  0  0  0  0  0  0  0
    1.8931   -7.9265   16.2047 C   0  0  0  0  0  0  0  0  0  0  0  0
    2.4396   -9.0801   16.7132 C   0  0  0  0  0  0  0  0  0  0  0  0
   -0.2575   -8.6234   16.8582 C   0  0  0  0  0  0  0  0  0  0  0  0
    4.0614   -7.0367   27.0106 N   0  0  0  0  0  0  0  0  0  0  0  0
   -2.9133  -11.6279   18.7578 C   0  0  0  0  0  0  0  0  0  0  0  0
    4.5688  -10.1291   29.5758 C   0  0  0  0  0  0  0  0  0  0  0  0
    2.1008   -9.0410   29.1852 N   0  0  0  0  0  0  0  0  0  0  0  0
    3.4829  -10.5697   30.2091 N   0  0  0  0  0  0  0  0  0  0  0  0
   -0.3363   -6.1172   27.5628 C   0  0  0  0  0  0  0  0  0  0  0  0
    3.0331   -7.4400   27.6362 C   0  0  0  0  0  0  0  0  0  0  0  0
    5.4553   -8.5933   27.9644 C   0  0  0  0  0  0  0  0  0  0  0  0
   -2.3870  -12.8440   19.2512 C   0  0  0  0  0  0  0  0  0  0  0  0
    0.5331   -7.6964   16.2751 C   0  0  0  0  0  0  0  0  0  0  0  0
   -0.6740  -10.8737   18.0482 C   0  0  0  0  0  0  0  0  0  0  0  0
    5.6751  -10.5870   29.7637 O   0  0  0  0  0  0  0  0  0  0  0  0
    1.7612   -5.6483   26.7172 C   0  0  0  0  0  0  0  0  0  0  0  0
    0.2221   -9.8326   17.4055 C   0  0  0  0  0  0  0  0  0  0  0  0
    4.3850   -9.0730   28.6745 C   0  0  0  0  0  0  0  0  0  0  0  0
  1  7  4  0
  1 22  4  0
  2 17  4  0
  2 20  4  0
  2 28  4  0
  3  6  1  0
  3 19  1  0
  4 19  1  0
  4 26  1  0
  5 17  4  0
  5 18  4  0
  6 20  1  0
  6 26  1  0
  7 24  4  0
  8 15  4  0
  8 24  4  0
  9 14  4  0
  9 21  4  0
 10 12  4  0
 10 27  4  0
 11 12  4  0
 11 23  4  0
 13 23  4  0
 13 27  4  0
 14 20  4  0
 15 22  4  0
 16 18  4  0
 16 25  2  0
 16 28  4  0
 21 28  4  0
 24 27  1  0
M  END
$$$$

 Created by Python create_sdf_string function

 28 31  0  0  0  0  0  0  0  0999 V2000
   -1.0054  -13.0622   19.1198 C   0  0  0  0  0  0  0  0  0  0  0  0
    3.1478   -8.5360   28.5161 C   0  0  0  0  0  0  0  0  0  0  0  0
    0.5798   -7.1906   27.9330 C   0  0  0  0  0  0  0  0  0  0  0  0
    0.3978   -5.1561   26.6955 C   0  0  0  0  0  0  0  0  0  0  0  0
    2.3063  -10.0533   30.0125 C   0  0  0  0  0  0  0  0  0  0  0  0
    1.8591   -6.8254   27.4685 N   0  0  0  0  0  0  0  0  0  0  0  0
   -0.2167  -12.1055   18.5568 C   0  0  0  0  0  0  0  0  0  0  0  0
   -2.0661  -10.6994   18.1916 C   0  0  0  0  0  0  0  0  0  0  0  0
    5.2703   -7.5691   27.1123 C   0  0  0  0  0  0  0  0  0  0  0  0
    1.6204   -9.9887   17.2935 C   0  0  0  0  0  0  0  0  0  0  0  0
    1.8931   -7.9265   16.2047 C   0  0  0  0  0  0  0  0  0  0  0  0
    2.4396   -9.0801   16.7132 C   0  0  0  0  0  0  0  0  0  0  0  0
   -0.2575   -8.6234   16.8582 C   0  0  0  0  0  0  0  0  0  0  0  0
    4.0614   -7.0367   27.0106 N   0  0  0  0  0  0  0  0  0  0  0  0
   -2.9133  -11.6279   18.7578 C   0  0  0  0  0  0  0  0  0  0  0  0
    4.5688  -10.1291   29.5758 C   0  0  0  0  0  0  0  0  0  0  0  0
    2.1008   -9.0410   29.1852 N   0  0  0  0  0  0  0  0  0  0  0  0
    3.4829  -10.5697   30.2091 N   0  0  0  0  0  0  0  0  0  0  0  0
   -0.3363   -6.1172   27.5628 C   0  0  0  0  0  0  0  0  0  0  0  0
    3.0331   -7.4400   27.6362 C   0  0  0  0  0  0  0  0  0  0  0  0
    5.4553   -8.5933   27.9644 C   0  0  0  0  0  0  0  0  0  0  0  0
   -2.3870  -12.8440   19.2512 C   0  0  0  0  0  0  0  0  0  0  0  0
    0.5331   -7.6964   16.2751 C   0  0  0  0  0  0  0  0  0  0  0  0
   -0.6740  -10.8737   18.0482 C   0  0  0  0  0  0  0  0  0  0  0  0
    5.6751  -10.5870   29.7637 O   0  0  0  0  0  0  0  0  0  0  0  0
    1.7612   -5.6483   26.7172 C   0  0  0  0  0  0  0  0  0  0  0  0
    0.2221   -9.8326   17.4055 C   0  0  0  0  0  0  0  0  0  0  0  0
    4.3850   -9.0730   28.6745 C   0  0  0  0  0  0  0  0  0  0  0  0
  1  7  4  0
  1 22  4  0
  2 17  4  0
  2 20  4  0
  2 28  4  0
  3  6  1  0
  3 19  1  0
  4 19  1  0
  4 26  1  0
  5 17  4  0
  5 18  4  0
  6 20  1  0
  6 26  1  0
  7 24  4  0
  8 15  4  0
  8 24  4  0
  9 14  4  0
  9 21  4  0
 10 12  4  0
 10 27  4  0
 11 12  4  0
 11 23  4  0
 13 23  4  0
 13 27  4  0
 14 20  4  0
 15 22  4  0
 16 18  4  0
 16 25  2  0
 16 28  4  0
 21 28  4  0
 24 27  1  0
M  END
$$$$

 Created by Python create_sdf_string function

 28 31  0  0  0  0  0  0  0  0999 V2000
   -1.0054  -13.0622   19.1198 C   0  0  0  0  0  0  0  0  0  0  0  0
    3.1478   -8.5360   28.5161 C   0  0  0  0  0  0  0  0  0  0  0  0
    0.5798   -7.1906   27.9330 C   0  0  0  0  0  0  0  0  0  0  0  0
    0.3978   -5.1561   26.6955 C   0  0  0  0  0  0  0  0  0  0  0  0
    2.3063  -10.0533   30.0125 C   0  0  0  0  0  0  0  0  0  0  0  0
    1.8591   -6.8254   27.4685 N   0  0  0  0  0  0  0  0  0  0  0  0
   -0.2167  -12.1055   18.5568 C   0  0  0  0  0  0  0  0  0  0  0  0
   -2.0661  -10.6994   18.1916 C   0  0  0  0  0  0  0  0  0  0  0  0
    5.2703   -7.5691   27.1123 C   0  0  0  0  0  0  0  0  0  0  0  0
    1.6204   -9.9887   17.2935 C   0  0  0  0  0  0  0  0  0  0  0  0
    1.8931   -7.9265   16.2047 C   0  0  0  0  0  0  0  0  0  0  0  0
    2.4396   -9.0801   16.7132 C   0  0  0  0  0  0  0  0  0  0  0  0
   -0.2575   -8.6234   16.8582 C   0  0  0  0  0  0  0  0  0  0  0  0
    4.0614   -7.0367   27.0106 N   0  0  0  0  0  0  0  0  0  0  0  0
   -2.9133  -11.6279   18.7578 C   0  0  0  0  0  0  0  0  0  0  0  0
    4.5688  -10.1291   29.5758 C   0  0  0  0  0  0  0  0  0  0  0  0
    2.1008   -9.0410   29.1852 N   0  0  0  0  0  0  0  0  0  0  0  0
    3.4829  -10.5697   30.2091 N   0  0  0  0  0  0  0  0  0  0  0  0
   -0.3363   -6.1172   27.5628 C   0  0  0  0  0  0  0  0  0  0  0  0
    3.0331   -7.4400   27.6362 C   0  0  0  0  0  0  0  0  0  0  0  0
    5.4553   -8.5933   27.9644 C   0  0  0  0  0  0  0  0  0  0  0  0
   -2.3870  -12.8440   19.2512 C   0  0  0  0  0  0  0  0  0  0  0  0
    0.5331   -7.6964   16.2751 C   0  0  0  0  0  0  0  0  0  0  0  0
   -0.6740  -10.8737   18.0482 C   0  0  0  0  0  0  0  0  0  0  0  0
    5.6751  -10.5870   29.7637 O   0  0  0  0  0  0  0  0  0  0  0  0
    1.7612   -5.6483   26.7172 C   0  0  0  0  0  0  0  0  0  0  0  0
    0.2221   -9.8326   17.4055 C   0  0  0  0  0  0  0  0  0  0  0  0
    4.3850   -9.0730   28.6745 C   0  0  0  0  0  0  0  0  0  0  0  0
  1  7  4  0
  1 22  4  0
  2 17  4  0
  2 20  4  0
  2 28  4  0
  3  6  1  0
  3 19  1  0
  4 19  1  0
  4 26  1  0
  5 17  4  0
  5 18  4  0
  6 20  1  0
  6 26  1  0
  7 24  4  0
  8 15  4  0
  8 24  4  0
  9 14  4  0
  9 21  4  0
 10 12  4  0
 10 27  4  0
 11 12  4  0
 11 23  4  0
 13 23  4  0
 13 27  4  0
 14 20  4  0
 15 22  4  0
 16 18  4  0
 16 25  2  0
 16 28  4  0
 21 28  4  0
 24 27  1  0
M  END
$$$$

 Created by Python create_sdf_string function

 28 31  0  0  0  0  0  0  0  0999 V2000
   -1.0054  -13.0622   19.1198 C   0  0  0  0  0  0  0  0  0  0  0  0
    3.1478   -8.5360   28.5161 C   0  0  0  0  0  0  0  0  0  0  0  0
    0.5798   -7.1906   27.9330 C   0  0  0  0  0  0  0  0  0  0  0  0
    0.3978   -5.1561   26.6955 C   0  0  0  0  0  0  0  0  0  0  0  0
    2.3063  -10.0533   30.0125 C   0  0  0  0  0  0  0  0  0  0  0  0
    1.8591   -6.8254   27.4685 N   0  0  0  0  0  0  0  0  0  0  0  0
   -0.2167  -12.1055   18.5568 C   0  0  0  0  0  0  0  0  0  0  0  0
   -2.0661  -10.6994   18.1916 C   0  0  0  0  0  0  0  0  0  0  0  0
    5.2703   -7.5691   27.1123 C   0  0  0  0  0  0  0  0  0  0  0  0
    1.6204   -9.9887   17.2935 C   0  0  0  0  0  0  0  0  0  0  0  0
    1.8931   -7.9265   16.2047 C   0  0  0  0  0  0  0  0  0  0  0  0
    2.4396   -9.0801   16.7132 C   0  0  0  0  0  0  0  0  0  0  0  0
   -0.2575   -8.6234   16.8582 C   0  0  0  0  0  0  0  0  0  0  0  0
    4.0614   -7.0367   27.0106 N   0  0  0  0  0  0  0  0  0  0  0  0
   -2.9133  -11.6279   18.7578 C   0  0  0  0  0  0  0  0  0  0  0  0
    4.5688  -10.1291   29.5758 C   0  0  0  0  0  0  0  0  0  0  0  0
    2.1008   -9.0410   29.1852 N   0  0  0  0  0  0  0  0  0  0  0  0
    3.4829  -10.5697   30.2091 N   0  0  0  0  0  0  0  0  0  0  0  0
   -0.3363   -6.1172   27.5628 C   0  0  0  0  0  0  0  0  0  0  0  0
    3.0331   -7.4400   27.6362 C   0  0  0  0  0  0  0  0  0  0  0  0
    5.4553   -8.5933   27.9644 C   0  0  0  0  0  0  0  0  0  0  0  0
   -2.3870  -12.8440   19.2512 C   0  0  0  0  0  0  0  0  0  0  0  0
    0.5331   -7.6964   16.2751 C   0  0  0  0  0  0  0  0  0  0  0  0
   -0.6740  -10.8737   18.0482 C   0  0  0  0  0  0  0  0  0  0  0  0
    5.6751  -10.5870   29.7637 O   0  0  0  0  0  0  0  0  0  0  0  0
    1.7612   -5.6483   26.7172 C   0  0  0  0  0  0  0  0  0  0  0  0
    0.2221   -9.8326   17.4055 C   0  0  0  0  0  0  0  0  0  0  0  0
    4.3850   -9.0730   28.6745 C   0  0  0  0  0  0  0  0  0  0  0  0
  1  7  4  0
  1 22  4  0
  2 17  4  0
  2 20  4  0
  2 28  4  0
  3  6  1  0
  3 19  1  0
  4 19  1  0
  4 26  1  0
  5 17  4  0
  5 18  4  0
  6 20  1  0
  6 26  1  0
  7 24  4  0
  8 15  4  0
  8 24  4  0
  9 14  4  0
  9 21  4  0
 10 12  4  0
 10 27  4  0
 11 12  4  0
 11 23  4  0
 13 23  4  0
 13 27  4  0
 14 20  4  0
 15 22  4  0
 16 18  4  0
 16 25  2  0
 16 28  4  0
 21 28  4  0
 24 27  1  0
M  END
$$$$

 Created by Python create_sdf_string function

 28 31  0  0  0  0  0  0  0  0999 V2000
   -1.0054  -13.0622   19.1198 C   0  0  0  0  0  0  0  0  0  0  0  0
    3.1478   -8.5360   28.5161 C   0  0  0  0  0  0  0  0  0  0  0  0
    0.5798   -7.1906   27.9330 C   0  0  0  0  0  0  0  0  0  0  0  0
    0.3978   -5.1561   26.6955 C   0  0  0  0  0  0  0  0  0  0  0  0
    2.3063  -10.0533   30.0125 C   0  0  0  0  0  0  0  0  0  0  0  0
    1.8591   -6.8254   27.4685 N   0  0  0  0  0  0  0  0  0  0  0  0
   -0.2167  -12.1055   18.5568 C   0  0  0  0  0  0  0  0  0  0  0  0
   -2.0661  -10.6994   18.1916 C   0  0  0  0  0  0  0  0  0  0  0  0
    5.2703   -7.5691   27.1123 C   0  0  0  0  0  0  0  0  0  0  0  0
    1.6204   -9.9887   17.2935 C   0  0  0  0  0  0  0  0  0  0  0  0
    1.8931   -7.9265   16.2047 C   0  0  0  0  0  0  0  0  0  0  0  0
    2.4396   -9.0801   16.7132 C   0  0  0  0  0  0  0  0  0  0  0  0
   -0.2575   -8.6234   16.8582 C   0  0  0  0  0  0  0  0  0  0  0  0
    4.0614   -7.0367   27.0106 N   0  0  0  0  0  0  0  0  0  0  0  0
   -2.9133  -11.6279   18.7578 C   0  0  0  0  0  0  0  0  0  0  0  0
    4.5688  -10.1291   29.5758 C   0  0  0  0  0  0  0  0  0  0  0  0
    2.1008   -9.0410   29.1852 N   0  0  0  0  0  0  0  0  0  0  0  0
    3.4829  -10.5697   30.2091 N   0  0  0  0  0  0  0  0  0  0  0  0
   -0.3363   -6.1172   27.5628 C   0  0  0  0  0  0  0  0  0  0  0  0
    3.0331   -7.4400   27.6362 C   0  0  0  0  0  0  0  0  0  0  0  0
    5.4553   -8.5933   27.9644 C   0  0  0  0  0  0  0  0  0  0  0  0
   -2.3870  -12.8440   19.2512 C   0  0  0  0  0  0  0  0  0  0  0  0
    0.5331   -7.6964   16.2751 C   0  0  0  0  0  0  0  0  0  0  0  0
   -0.6740  -10.8737   18.0482 C   0  0  0  0  0  0  0  0  0  0  0  0
    5.6751  -10.5870   29.7637 O   0  0  0  0  0  0  0  0  0  0  0  0
    1.7612   -5.6483   26.7172 C   0  0  0  0  0  0  0  0  0  0  0  0
    0.2221   -9.8326   17.4055 C   0  0  0  0  0  0  0  0  0  0  0  0
    4.3850   -9.0730   28.6745 C   0  0  0  0  0  0  0  0  0  0  0  0
  1  7  4  0
  1 22  4  0
  2 17  4  0
  2 20  4  0
  2 28  4  0
  3  6  1  0
  3 19  1  0
  4 19  1  0
  4 26  1  0
  5 17  4  0
  5 18  4  0
  6 20  1  0
  6 26  1  0
  7 24  4  0
  8 15  4  0
  8 24  4  0
  9 14  4  0
  9 21  4  0
 10 12  4  0
 10 27  4  0
 11 12  4  0
 11 23  4  0
 13 23  4  0
 13 27  4  0
 14 20  4  0
 15 22  4  0
 16 18  4  0
 16 25  2  0
 16 28  4  0
 21 28  4  0
 24 27  1  0
M  END
$$$$

 Created by Python create_sdf_string function

 28 31  0  0  0  0  0  0  0  0999 V2000
   -1.0054  -13.0622   19.1198 C   0  0  0  0  0  0  0  0  0  0  0  0
    3.1478   -8.5360   28.5161 C   0  0  0  0  0  0  0  0  0  0  0  0
    0.5798   -7.1906   27.9330 C   0  0  0  0  0  0  0  0  0  0  0  0
    0.3978   -5.1561   26.6955 C   0  0  0  0  0  0  0  0  0  0  0  0
    2.3063  -10.0533   30.0125 C   0  0  0  0  0  0  0  0  0  0  0  0
    1.8591   -6.8254   27.4685 N   0  0  0  0  0  0  0  0  0  0  0  0
   -0.2167  -12.1055   18.5568 C   0  0  0  0  0  0  0  0  0  0  0  0
   -2.0661  -10.6994   18.1916 C   0  0  0  0  0  0  0  0  0  0  0  0
    5.2703   -7.5691   27.1123 C   0  0  0  0  0  0  0  0  0  0  0  0
    1.6204   -9.9887   17.2935 C   0  0  0  0  0  0  0  0  0  0  0  0
    1.8931   -7.9265   16.2047 C   0  0  0  0  0  0  0  0  0  0  0  0
    2.4396   -9.0801   16.7132 C   0  0  0  0  0  0  0  0  0  0  0  0
   -0.2575   -8.6234   16.8582 C   0  0  0  0  0  0  0  0  0  0  0  0
    4.0614   -7.0367   27.0106 N   0  0  0  0  0  0  0  0  0  0  0  0
   -2.9133  -11.6279   18.7578 C   0  0  0  0  0  0  0  0  0  0  0  0
    4.5688  -10.1291   29.5758 C   0  0  0  0  0  0  0  0  0  0  0  0
    2.1008   -9.0410   29.1852 N   0  0  0  0  0  0  0  0  0  0  0  0
    3.4829  -10.5697   30.2091 N   0  0  0  0  0  0  0  0  0  0  0  0
   -0.3363   -6.1172   27.5628 C   0  0  0  0  0  0  0  0  0  0  0  0
    3.0331   -7.4400   27.6362 C   0  0  0  0  0  0  0  0  0  0  0  0
    5.4553   -8.5933   27.9644 C   0  0  0  0  0  0  0  0  0  0  0  0
   -2.3870  -12.8440   19.2512 C   0  0  0  0  0  0  0  0  0  0  0  0
    0.5331   -7.6964   16.2751 C   0  0  0  0  0  0  0  0  0  0  0  0
   -0.6740  -10.8737   18.0482 C   0  0  0  0  0  0  0  0  0  0  0  0
    5.6751  -10.5870   29.7637 O   0  0  0  0  0  0  0  0  0  0  0  0
    1.7612   -5.6483   26.7172 C   0  0  0  0  0  0  0  0  0  0  0  0
    0.2221   -9.8326   17.4055 C   0  0  0  0  0  0  0  0  0  0  0  0
    4.3850   -9.0730   28.6745 C   0  0  0  0  0  0  0  0  0  0  0  0
  1  7  4  0
  1 22  4  0
  2 17  4  0
  2 20  4  0
  2 28  4  0
  3  6  1  0
  3 19  1  0
  4 19  1  0
  4 26  1  0
  5 17  4  0
  5 18  4  0
  6 20  1  0
  6 26  1  0
  7 24  4  0
  8 15  4  0
  8 24  4  0
  9 14  4  0
  9 21  4  0
 10 12  4  0
 10 27  4  0
 11 12  4  0
 11 23  4  0
 13 23  4  0
 13 27  4  0
 14 20  4  0
 15 22  4  0
 16 18  4  0
 16 25  2  0
 16 28  4  0
 21 28  4  0
 24 27  1  0
M  END
$$$$

 Created by Python create_sdf_string function

 28 31  0  0  0  0  0  0  0  0999 V2000
   -1.0054  -13.0622   19.1198 C   0  0  0  0  0  0  0  0  0  0  0  0
    3.1478   -8.5360   28.5161 C   0  0  0  0  0  0  0  0  0  0  0  0
    0.5798   -7.1906   27.9330 C   0  0  0  0  0  0  0  0  0  0  0  0
    0.3978   -5.1561   26.6955 C   0  0  0  0  0  0  0  0  0  0  0  0
    2.3063  -10.0533   30.0125 C   0  0  0  0  0  0  0  0  0  0  0  0
    1.8591   -6.8254   27.4685 N   0  0  0  0  0  0  0  0  0  0  0  0
   -0.2167  -12.1055   18.5568 C   0  0  0  0  0  0  0  0  0  0  0  0
   -2.0661  -10.6994   18.1916 C   0  0  0  0  0  0  0  0  0  0  0  0
    5.2703   -7.5691   27.1123 C   0  0  0  0  0  0  0  0  0  0  0  0
    1.6204   -9.9887   17.2935 C   0  0  0  0  0  0  0  0  0  0  0  0
    1.8931   -7.9265   16.2047 C   0  0  0  0  0  0  0  0  0  0  0  0
    2.4396   -9.0801   16.7132 C   0  0  0  0  0  0  0  0  0  0  0  0
   -0.2575   -8.6234   16.8582 C   0  0  0  0  0  0  0  0  0  0  0  0
    4.0614   -7.0367   27.0106 N   0  0  0  0  0  0  0  0  0  0  0  0
   -2.9133  -11.6279   18.7578 C   0  0  0  0  0  0  0  0  0  0  0  0
    4.5688  -10.1291   29.5758 C   0  0  0  0  0  0  0  0  0  0  0  0
    2.1008   -9.0410   29.1852 N   0  0  0  0  0  0  0  0  0  0  0  0
    3.4829  -10.5697   30.2091 N   0  0  0  0  0  0  0  0  0  0  0  0
   -0.3363   -6.1172   27.5628 C   0  0  0  0  0  0  0  0  0  0  0  0
    3.0331   -7.4400   27.6362 C   0  0  0  0  0  0  0  0  0  0  0  0
    5.4553   -8.5933   27.9644 C   0  0  0  0  0  0  0  0  0  0  0  0
   -2.3870  -12.8440   19.2512 C   0  0  0  0  0  0  0  0  0  0  0  0
    0.5331   -7.6964   16.2751 C   0  0  0  0  0  0  0  0  0  0  0  0
   -0.6740  -10.8737   18.0482 C   0  0  0  0  0  0  0  0  0  0  0  0
    5.6751  -10.5870   29.7637 O   0  0  0  0  0  0  0  0  0  0  0  0
    1.7612   -5.6483   26.7172 C   0  0  0  0  0  0  0  0  0  0  0  0
    0.2221   -9.8326   17.4055 C   0  0  0  0  0  0  0  0  0  0  0  0
    4.3850   -9.0730   28.6745 C   0  0  0  0  0  0  0  0  0  0  0  0
  1  7  4  0
  1 22  4  0
  2 17  4  0
  2 20  4  0
  2 28  4  0
  3  6  1  0
  3 19  1  0
  4 19  1  0
  4 26  1  0
  5 17  4  0
  5 18  4  0
  6 20  1  0
  6 26  1  0
  7 24  4  0
  8 15  4  0
  8 24  4  0
  9 14  4  0
  9 21  4  0
 10 12  4  0
 10 27  4  0
 11 12  4  0
 11 23  4  0
 13 23  4  0
 13 27  4  0
 14 20  4  0
 15 22  4  0
 16 18  4  0
 16 25  2  0
 16 28  4  0
 21 28  4  0
 24 27  1  0
M  END
$$$$

 Created by Python create_sdf_string function

 28 31  0  0  0  0  0  0  0  0999 V2000
   -1.0054  -13.0622   19.1198 C   0  0  0  0  0  0  0  0  0  0  0  0
    3.1478   -8.5360   28.5161 C   0  0  0  0  0  0  0  0  0  0  0  0
    0.5798   -7.1906   27.9330 C   0  0  0  0  0  0  0  0  0  0  0  0
    0.3978   -5.1561   26.6955 C   0  0  0  0  0  0  0  0  0  0  0  0
    2.3063  -10.0533   30.0125 C   0  0  0  0  0  0  0  0  0  0  0  0
    1.8591   -6.8254   27.4685 N   0  0  0  0  0  0  0  0  0  0  0  0
   -0.2167  -12.1055   18.5568 C   0  0  0  0  0  0  0  0  0  0  0  0
   -2.0661  -10.6994   18.1916 C   0  0  0  0  0  0  0  0  0  0  0  0
    5.2703   -7.5691   27.1123 C   0  0  0  0  0  0  0  0  0  0  0  0
    1.6204   -9.9887   17.2935 C   0  0  0  0  0  0  0  0  0  0  0  0
    1.8931   -7.9265   16.2047 C   0  0  0  0  0  0  0  0  0  0  0  0
    2.4396   -9.0801   16.7132 C   0  0  0  0  0  0  0  0  0  0  0  0
   -0.2575   -8.6234   16.8582 C   0  0  0  0  0  0  0  0  0  0  0  0
    4.0614   -7.0367   27.0106 N   0  0  0  0  0  0  0  0  0  0  0  0
   -2.9133  -11.6279   18.7578 C   0  0  0  0  0  0  0  0  0  0  0  0
    4.5688  -10.1291   29.5758 C   0  0  0  0  0  0  0  0  0  0  0  0
    2.1008   -9.0410   29.1852 N   0  0  0  0  0  0  0  0  0  0  0  0
    3.4829  -10.5697   30.2091 N   0  0  0  0  0  0  0  0  0  0  0  0
   -0.3363   -6.1172   27.5628 C   0  0  0  0  0  0  0  0  0  0  0  0
    3.0331   -7.4400   27.6362 C   0  0  0  0  0  0  0  0  0  0  0  0
    5.4553   -8.5933   27.9644 C   0  0  0  0  0  0  0  0  0  0  0  0
   -2.3870  -12.8440   19.2512 C   0  0  0  0  0  0  0  0  0  0  0  0
    0.5331   -7.6964   16.2751 C   0  0  0  0  0  0  0  0  0  0  0  0
   -0.6740  -10.8737   18.0482 C   0  0  0  0  0  0  0  0  0  0  0  0
    5.6751  -10.5870   29.7637 O   0  0  0  0  0  0  0  0  0  0  0  0
    1.7612   -5.6483   26.7172 C   0  0  0  0  0  0  0  0  0  0  0  0
    0.2221   -9.8326   17.4055 C   0  0  0  0  0  0  0  0  0  0  0  0
    4.3850   -9.0730   28.6745 C   0  0  0  0  0  0  0  0  0  0  0  0
  1  7  4  0
  1 22  4  0
  2 17  4  0
  2 20  4  0
  2 28  4  0
  3  6  1  0
  3 19  1  0
  4 19  1  0
  4 26  1  0
  5 17  4  0
  5 18  4  0
  6 20  1  0
  6 26  1  0
  7 24  4  0
  8 15  4  0
  8 24  4  0
  9 14  4  0
  9 21  4  0
 10 12  4  0
 10 27  4  0
 11 12  4  0
 11 23  4  0
 13 23  4  0
 13 27  4  0
 14 20  4  0
 15 22  4  0
 16 18  4  0
 16 25  2  0
 16 28  4  0
 21 28  4  0
 24 27  1  0
M  END
$$$$

 Created by Python create_sdf_string function

 28 31  0  0  0  0  0  0  0  0999 V2000
   -1.0054  -13.0622   19.1198 C   0  0  0  0  0  0  0  0  0  0  0  0
    3.1478   -8.5360   28.5161 C   0  0  0  0  0  0  0  0  0  0  0  0
    0.5798   -7.1906   27.9330 C   0  0  0  0  0  0  0  0  0  0  0  0
    0.3978   -5.1561   26.6955 C   0  0  0  0  0  0  0  0  0  0  0  0
    2.3063  -10.0533   30.0125 C   0  0  0  0  0  0  0  0  0  0  0  0
    1.8591   -6.8254   27.4685 N   0  0  0  0  0  0  0  0  0  0  0  0
   -0.2167  -12.1055   18.5568 C   0  0  0  0  0  0  0  0  0  0  0  0
   -2.0661  -10.6994   18.1916 C   0  0  0  0  0  0  0  0  0  0  0  0
    5.2703   -7.5691   27.1123 C   0  0  0  0  0  0  0  0  0  0  0  0
    1.6204   -9.9887   17.2935 C   0  0  0  0  0  0  0  0  0  0  0  0
    1.8931   -7.9265   16.2047 C   0  0  0  0  0  0  0  0  0  0  0  0
    2.4396   -9.0801   16.7132 C   0  0  0  0  0  0  0  0  0  0  0  0
   -0.2575   -8.6234   16.8582 C   0  0  0  0  0  0  0  0  0  0  0  0
    4.0614   -7.0367   27.0106 N   0  0  0  0  0  0  0  0  0  0  0  0
   -2.9133  -11.6279   18.7578 C   0  0  0  0  0  0  0  0  0  0  0  0
    4.5688  -10.1291   29.5758 C   0  0  0  0  0  0  0  0  0  0  0  0
    2.1008   -9.0410   29.1852 N   0  0  0  0  0  0  0  0  0  0  0  0
    3.4829  -10.5697   30.2091 N   0  0  0  0  0  0  0  0  0  0  0  0
   -0.3363   -6.1172   27.5628 C   0  0  0  0  0  0  0  0  0  0  0  0
    3.0331   -7.4400   27.6362 C   0  0  0  0  0  0  0  0  0  0  0  0
    5.4553   -8.5933   27.9644 C   0  0  0  0  0  0  0  0  0  0  0  0
   -2.3870  -12.8440   19.2512 C   0  0  0  0  0  0  0  0  0  0  0  0
    0.5331   -7.6964   16.2751 C   0  0  0  0  0  0  0  0  0  0  0  0
   -0.6740  -10.8737   18.0482 C   0  0  0  0  0  0  0  0  0  0  0  0
    5.6751  -10.5870   29.7637 O   0  0  0  0  0  0  0  0  0  0  0  0
    1.7612   -5.6483   26.7172 C   0  0  0  0  0  0  0  0  0  0  0  0
    0.2221   -9.8326   17.4055 C   0  0  0  0  0  0  0  0  0  0  0  0
    4.3850   -9.0730   28.6745 C   0  0  0  0  0  0  0  0  0  0  0  0
  1  7  4  0
  1 22  4  0
  2 17  4  0
  2 20  4  0
  2 28  4  0
  3  6  1  0
  3 19  1  0
  4 19  1  0
  4 26  1  0
  5 17  4  0
  5 18  4  0
  6 20  1  0
  6 26  1  0
  7 24  4  0
  8 15  4  0
  8 24  4  0
  9 14  4  0
  9 21  4  0
 10 12  4  0
 10 27  4  0
 11 12  4  0
 11 23  4  0
 13 23  4  0
 13 27  4  0
 14 20  4  0
 15 22  4  0
 16 18  4  0
 16 25  2  0
 16 28  4  0
 21 28  4  0
 24 27  1  0
M  END
$$$$

 Created by Python create_sdf_string function

 28 31  0  0  0  0  0  0  0  0999 V2000
   -1.0054  -13.0622   19.1198 C   0  0  0  0  0  0  0  0  0  0  0  0
    3.1478   -8.5360   28.5161 C   0  0  0  0  0  0  0  0  0  0  0  0
    0.5798   -7.1906   27.9330 C   0  0  0  0  0  0  0  0  0  0  0  0
    0.3978   -5.1561   26.6955 C   0  0  0  0  0  0  0  0  0  0  0  0
    2.3063  -10.0533   30.0125 C   0  0  0  0  0  0  0  0  0  0  0  0
    1.8591   -6.8254   27.4685 N   0  0  0  0  0  0  0  0  0  0  0  0
   -0.2167  -12.1055   18.5568 C   0  0  0  0  0  0  0  0  0  0  0  0
   -2.0661  -10.6994   18.1916 C   0  0  0  0  0  0  0  0  0  0  0  0
    5.2703   -7.5691   27.1123 C   0  0  0  0  0  0  0  0  0  0  0  0
    1.6204   -9.9887   17.2935 C   0  0  0  0  0  0  0  0  0  0  0  0
    1.8931   -7.9265   16.2047 C   0  0  0  0  0  0  0  0  0  0  0  0
    2.4396   -9.0801   16.7132 C   0  0  0  0  0  0  0  0  0  0  0  0
   -0.2575   -8.6234   16.8582 C   0  0  0  0  0  0  0  0  0  0  0  0
    4.0614   -7.0367   27.0106 N   0  0  0  0  0  0  0  0  0  0  0  0
   -2.9133  -11.6279   18.7578 C   0  0  0  0  0  0  0  0  0  0  0  0
    4.5688  -10.1291   29.5758 C   0  0  0  0  0  0  0  0  0  0  0  0
    2.1008   -9.0410   29.1852 N   0  0  0  0  0  0  0  0  0  0  0  0
    3.4829  -10.5697   30.2091 N   0  0  0  0  0  0  0  0  0  0  0  0
   -0.3363   -6.1172   27.5628 C   0  0  0  0  0  0  0  0  0  0  0  0
    3.0331   -7.4400   27.6362 C   0  0  0  0  0  0  0  0  0  0  0  0
    5.4553   -8.5933   27.9644 C   0  0  0  0  0  0  0  0  0  0  0  0
   -2.3870  -12.8440   19.2512 C   0  0  0  0  0  0  0  0  0  0  0  0
    0.5331   -7.6964   16.2751 C   0  0  0  0  0  0  0  0  0  0  0  0
   -0.6740  -10.8737   18.0482 C   0  0  0  0  0  0  0  0  0  0  0  0
    5.6751  -10.5870   29.7637 O   0  0  0  0  0  0  0  0  0  0  0  0
    1.7612   -5.6483   26.7172 C   0  0  0  0  0  0  0  0  0  0  0  0
    0.2221   -9.8326   17.4055 C   0  0  0  0  0  0  0  0  0  0  0  0
    4.3850   -9.0730   28.6745 C   0  0  0  0  0  0  0  0  0  0  0  0
  1  7  4  0
  1 22  4  0
  2 17  4  0
  2 20  4  0
  2 28  4  0
  3  6  1  0
  3 19  1  0
  4 19  1  0
  4 26  1  0
  5 17  4  0
  5 18  4  0
  6 20  1  0
  6 26  1  0
  7 24  4  0
  8 15  4  0
  8 24  4  0
  9 14  4  0
  9 21  4  0
 10 12  4  0
 10 27  4  0
 11 12  4  0
 11 23  4  0
 13 23  4  0
 13 27  4  0
 14 20  4  0
 15 22  4  0
 16 18  4  0
 16 25  2  0
 16 28  4  0
 21 28  4  0
 24 27  1  0
M  END
$$$$

 Created by Python create_sdf_string function

 28 31  0  0  0  0  0  0  0  0999 V2000
   -1.0054  -13.0622   19.1198 C   0  0  0  0  0  0  0  0  0  0  0  0
    3.1478   -8.5360   28.5161 C   0  0  0  0  0  0  0  0  0  0  0  0
    0.5798   -7.1906   27.9330 C   0  0  0  0  0  0  0  0  0  0  0  0
    0.3978   -5.1561   26.6955 C   0  0  0  0  0  0  0  0  0  0  0  0
    2.3063  -10.0533   30.0125 C   0  0  0  0  0  0  0  0  0  0  0  0
    1.8591   -6.8254   27.4685 N   0  0  0  0  0  0  0  0  0  0  0  0
   -0.2167  -12.1055   18.5568 C   0  0  0  0  0  0  0  0  0  0  0  0
   -2.0661  -10.6994   18.1916 C   0  0  0  0  0  0  0  0  0  0  0  0
    5.2703   -7.5691   27.1123 C   0  0  0  0  0  0  0  0  0  0  0  0
    1.6204   -9.9887   17.2935 C   0  0  0  0  0  0  0  0  0  0  0  0
    1.8931   -7.9265   16.2047 C   0  0  0  0  0  0  0  0  0  0  0  0
    2.4396   -9.0801   16.7132 C   0  0  0  0  0  0  0  0  0  0  0  0
   -0.2575   -8.6234   16.8582 C   0  0  0  0  0  0  0  0  0  0  0  0
    4.0614   -7.0367   27.0106 N   0  0  0  0  0  0  0  0  0  0  0  0
   -2.9133  -11.6279   18.7578 C   0  0  0  0  0  0  0  0  0  0  0  0
    4.5688  -10.1291   29.5758 C   0  0  0  0  0  0  0  0  0  0  0  0
    2.1008   -9.0410   29.1852 N   0  0  0  0  0  0  0  0  0  0  0  0
    3.4829  -10.5697   30.2091 N   0  0  0  0  0  0  0  0  0  0  0  0
   -0.3363   -6.1172   27.5628 C   0  0  0  0  0  0  0  0  0  0  0  0
    3.0331   -7.4400   27.6362 C   0  0  0  0  0  0  0  0  0  0  0  0
    5.4553   -8.5933   27.9644 C   0  0  0  0  0  0  0  0  0  0  0  0
   -2.3870  -12.8440   19.2512 C   0  0  0  0  0  0  0  0  0  0  0  0
    0.5331   -7.6964   16.2751 C   0  0  0  0  0  0  0  0  0  0  0  0
   -0.6740  -10.8737   18.0482 C   0  0  0  0  0  0  0  0  0  0  0  0
    5.6751  -10.5870   29.7637 O   0  0  0  0  0  0  0  0  0  0  0  0
    1.7612   -5.6483   26.7172 C   0  0  0  0  0  0  0  0  0  0  0  0
    0.2221   -9.8326   17.4055 C   0  0  0  0  0  0  0  0  0  0  0  0
    4.3850   -9.0730   28.6745 C   0  0  0  0  0  0  0  0  0  0  0  0
  1  7  4  0
  1 22  4  0
  2 17  4  0
  2 20  4  0
  2 28  4  0
  3  6  1  0
  3 19  1  0
  4 19  1  0
  4 26  1  0
  5 17  4  0
  5 18  4  0
  6 20  1  0
  6 26  1  0
  7 24  4  0
  8 15  4  0
  8 24  4  0
  9 14  4  0
  9 21  4  0
 10 12  4  0
 10 27  4  0
 11 12  4  0
 11 23  4  0
 13 23  4  0
 13 27  4  0
 14 20  4  0
 15 22  4  0
 16 18  4  0
 16 25  2  0
 16 28  4  0
 21 28  4  0
 24 27  1  0
M  END
$$$$

 Created by Python create_sdf_string function

 28 31  0  0  0  0  0  0  0  0999 V2000
   -1.0054  -13.0622   19.1198 C   0  0  0  0  0  0  0  0  0  0  0  0
    3.1478   -8.5360   28.5161 C   0  0  0  0  0  0  0  0  0  0  0  0
    0.5798   -7.1906   27.9330 C   0  0  0  0  0  0  0  0  0  0  0  0
    0.3978   -5.1561   26.6955 C   0  0  0  0  0  0  0  0  0  0  0  0
    2.3063  -10.0533   30.0125 C   0  0  0  0  0  0  0  0  0  0  0  0
    1.8591   -6.8254   27.4685 N   0  0  0  0  0  0  0  0  0  0  0  0
   -0.2167  -12.1055   18.5568 C   0  0  0  0  0  0  0  0  0  0  0  0
   -2.0661  -10.6994   18.1916 C   0  0  0  0  0  0  0  0  0  0  0  0
    5.2703   -7.5691   27.1123 C   0  0  0  0  0  0  0  0  0  0  0  0
    1.6204   -9.9887   17.2935 C   0  0  0  0  0  0  0  0  0  0  0  0
    1.8931   -7.9265   16.2047 C   0  0  0  0  0  0  0  0  0  0  0  0
    2.4396   -9.0801   16.7132 C   0  0  0  0  0  0  0  0  0  0  0  0
   -0.2575   -8.6234   16.8582 C   0  0  0  0  0  0  0  0  0  0  0  0
    4.0614   -7.0367   27.0106 N   0  0  0  0  0  0  0  0  0  0  0  0
   -2.9133  -11.6279   18.7578 C   0  0  0  0  0  0  0  0  0  0  0  0
    4.5688  -10.1291   29.5758 C   0  0  0  0  0  0  0  0  0  0  0  0
    2.1008   -9.0410   29.1852 N   0  0  0  0  0  0  0  0  0  0  0  0
    3.4829  -10.5697   30.2091 N   0  0  0  0  0  0  0  0  0  0  0  0
   -0.3363   -6.1172   27.5628 C   0  0  0  0  0  0  0  0  0  0  0  0
    3.0331   -7.4400   27.6362 C   0  0  0  0  0  0  0  0  0  0  0  0
    5.4553   -8.5933   27.9644 C   0  0  0  0  0  0  0  0  0  0  0  0
   -2.3870  -12.8440   19.2512 C   0  0  0  0  0  0  0  0  0  0  0  0
    0.5331   -7.6964   16.2751 C   0  0  0  0  0  0  0  0  0  0  0  0
   -0.6740  -10.8737   18.0482 C   0  0  0  0  0  0  0  0  0  0  0  0
    5.6751  -10.5870   29.7637 O   0  0  0  0  0  0  0  0  0  0  0  0
    1.7612   -5.6483   26.7172 C   0  0  0  0  0  0  0  0  0  0  0  0
    0.2221   -9.8326   17.4055 C   0  0  0  0  0  0  0  0  0  0  0  0
    4.3850   -9.0730   28.6745 C   0  0  0  0  0  0  0  0  0  0  0  0
  1  7  4  0
  1 22  4  0
  2 17  4  0
  2 20  4  0
  2 28  4  0
  3  6  1  0
  3 19  1  0
  4 19  1  0
  4 26  1  0
  5 17  4  0
  5 18  4  0
  6 20  1  0
  6 26  1  0
  7 24  4  0
  8 15  4  0
  8 24  4  0
  9 14  4  0
  9 21  4  0
 10 12  4  0
 10 27  4  0
 11 12  4  0
 11 23  4  0
 13 23  4  0
 13 27  4  0
 14 20  4  0
 15 22  4  0
 16 18  4  0
 16 25  2  0
 16 28  4  0
 21 28  4  0
 24 27  1  0
M  END
$$$$

 Created by Python create_sdf_string function

 28 31  0  0  0  0  0  0  0  0999 V2000
   -1.0054  -13.0622   19.1198 C   0  0  0  0  0  0  0  0  0  0  0  0
    3.1478   -8.5360   28.5161 C   0  0  0  0  0  0  0  0  0  0  0  0
    0.5798   -7.1906   27.9330 C   0  0  0  0  0  0  0  0  0  0  0  0
    0.3978   -5.1561   26.6955 C   0  0  0  0  0  0  0  0  0  0  0  0
    2.3063  -10.0533   30.0125 C   0  0  0  0  0  0  0  0  0  0  0  0
    1.8591   -6.8254   27.4685 N   0  0  0  0  0  0  0  0  0  0  0  0
   -0.2167  -12.1055   18.5568 C   0  0  0  0  0  0  0  0  0  0  0  0
   -2.0661  -10.6994   18.1916 C   0  0  0  0  0  0  0  0  0  0  0  0
    5.2703   -7.5691   27.1123 C   0  0  0  0  0  0  0  0  0  0  0  0
    1.6204   -9.9887   17.2935 C   0  0  0  0  0  0  0  0  0  0  0  0
    1.8931   -7.9265   16.2047 C   0  0  0  0  0  0  0  0  0  0  0  0
    2.4396   -9.0801   16.7132 C   0  0  0  0  0  0  0  0  0  0  0  0
   -0.2575   -8.6234   16.8582 C   0  0  0  0  0  0  0  0  0  0  0  0
    4.0614   -7.0367   27.0106 N   0  0  0  0  0  0  0  0  0  0  0  0
   -2.9133  -11.6279   18.7578 C   0  0  0  0  0  0  0  0  0  0  0  0
    4.5688  -10.1291   29.5758 C   0  0  0  0  0  0  0  0  0  0  0  0
    2.1008   -9.0410   29.1852 N   0  0  0  0  0  0  0  0  0  0  0  0
    3.4829  -10.5697   30.2091 N   0  0  0  0  0  0  0  0  0  0  0  0
   -0.3363   -6.1172   27.5628 C   0  0  0  0  0  0  0  0  0  0  0  0
    3.0331   -7.4400   27.6362 C   0  0  0  0  0  0  0  0  0  0  0  0
    5.4553   -8.5933   27.9644 C   0  0  0  0  0  0  0  0  0  0  0  0
   -2.3870  -12.8440   19.2512 C   0  0  0  0  0  0  0  0  0  0  0  0
    0.5331   -7.6964   16.2751 C   0  0  0  0  0  0  0  0  0  0  0  0
   -0.6740  -10.8737   18.0482 C   0  0  0  0  0  0  0  0  0  0  0  0
    5.6751  -10.5870   29.7637 O   0  0  0  0  0  0  0  0  0  0  0  0
    1.7612   -5.6483   26.7172 C   0  0  0  0  0  0  0  0  0  0  0  0
    0.2221   -9.8326   17.4055 C   0  0  0  0  0  0  0  0  0  0  0  0
    4.3850   -9.0730   28.6745 C   0  0  0  0  0  0  0  0  0  0  0  0
  1  7  4  0
  1 22  4  0
  2 17  4  0
  2 20  4  0
  2 28  4  0
  3  6  1  0
  3 19  1  0
  4 19  1  0
  4 26  1  0
  5 17  4  0
  5 18  4  0
  6 20  1  0
  6 26  1  0
  7 24  4  0
  8 15  4  0
  8 24  4  0
  9 14  4  0
  9 21  4  0
 10 12  4  0
 10 27  4  0
 11 12  4  0
 11 23  4  0
 13 23  4  0
 13 27  4  0
 14 20  4  0
 15 22  4  0
 16 18  4  0
 16 25  2  0
 16 28  4  0
 21 28  4  0
 24 27  1  0
M  END
$$$$

 Created by Python create_sdf_string function

 28 31  0  0  0  0  0  0  0  0999 V2000
   -1.0054  -13.0622   19.1198 C   0  0  0  0  0  0  0  0  0  0  0  0
    3.1478   -8.5360   28.5161 C   0  0  0  0  0  0  0  0  0  0  0  0
    0.5798   -7.1906   27.9330 C   0  0  0  0  0  0  0  0  0  0  0  0
    0.3978   -5.1561   26.6955 C   0  0  0  0  0  0  0  0  0  0  0  0
    2.3063  -10.0533   30.0125 C   0  0  0  0  0  0  0  0  0  0  0  0
    1.8591   -6.8254   27.4685 N   0  0  0  0  0  0  0  0  0  0  0  0
   -0.2167  -12.1055   18.5568 C   0  0  0  0  0  0  0  0  0  0  0  0
   -2.0661  -10.6994   18.1916 C   0  0  0  0  0  0  0  0  0  0  0  0
    5.2703   -7.5691   27.1123 C   0  0  0  0  0  0  0  0  0  0  0  0
    1.6204   -9.9887   17.2935 C   0  0  0  0  0  0  0  0  0  0  0  0
    1.8931   -7.9265   16.2047 C   0  0  0  0  0  0  0  0  0  0  0  0
    2.4396   -9.0801   16.7132 C   0  0  0  0  0  0  0  0  0  0  0  0
   -0.2575   -8.6234   16.8582 C   0  0  0  0  0  0  0  0  0  0  0  0
    4.0614   -7.0367   27.0106 N   0  0  0  0  0  0  0  0  0  0  0  0
   -2.9133  -11.6279   18.7578 C   0  0  0  0  0  0  0  0  0  0  0  0
    4.5688  -10.1291   29.5758 C   0  0  0  0  0  0  0  0  0  0  0  0
    2.1008   -9.0410   29.1852 N   0  0  0  0  0  0  0  0  0  0  0  0
    3.4829  -10.5697   30.2091 N   0  0  0  0  0  0  0  0  0  0  0  0
   -0.3363   -6.1172   27.5628 C   0  0  0  0  0  0  0  0  0  0  0  0
    3.0331   -7.4400   27.6362 C   0  0  0  0  0  0  0  0  0  0  0  0
    5.4553   -8.5933   27.9644 C   0  0  0  0  0  0  0  0  0  0  0  0
   -2.3870  -12.8440   19.2512 C   0  0  0  0  0  0  0  0  0  0  0  0
    0.5331   -7.6964   16.2751 C   0  0  0  0  0  0  0  0  0  0  0  0
   -0.6740  -10.8737   18.0482 C   0  0  0  0  0  0  0  0  0  0  0  0
    5.6751  -10.5870   29.7637 O   0  0  0  0  0  0  0  0  0  0  0  0
    1.7612   -5.6483   26.7172 C   0  0  0  0  0  0  0  0  0  0  0  0
    0.2221   -9.8326   17.4055 C   0  0  0  0  0  0  0  0  0  0  0  0
    4.3850   -9.0730   28.6745 C   0  0  0  0  0  0  0  0  0  0  0  0
  1  7  4  0
  1 22  4  0
  2 17  4  0
  2 20  4  0
  2 28  4  0
  3  6  1  0
  3 19  1  0
  4 19  1  0
  4 26  1  0
  5 17  4  0
  5 18  4  0
  6 20  1  0
  6 26  1  0
  7 24  4  0
  8 15  4  0
  8 24  4  0
  9 14  4  0
  9 21  4  0
 10 12  4  0
 10 27  4  0
 11 12  4  0
 11 23  4  0
 13 23  4  0
 13 27  4  0
 14 20  4  0
 15 22  4  0
 16 18  4  0
 16 25  2  0
 16 28  4  0
 21 28  4  0
 24 27  1  0
M  END
$$$$

 Created by Python create_sdf_string function

 28 31  0  0  0  0  0  0  0  0999 V2000
   -1.0054  -13.0622   19.1198 C   0  0  0  0  0  0  0  0  0  0  0  0
    3.1478   -8.5360   28.5161 C   0  0  0  0  0  0  0  0  0  0  0  0
    0.5798   -7.1906   27.9330 C   0  0  0  0  0  0  0  0  0  0  0  0
    0.3978   -5.1561   26.6955 C   0  0  0  0  0  0  0  0  0  0  0  0
    2.3063  -10.0533   30.0125 C   0  0  0  0  0  0  0  0  0  0  0  0
    1.8591   -6.8254   27.4685 N   0  0  0  0  0  0  0  0  0  0  0  0
   -0.2167  -12.1055   18.5568 C   0  0  0  0  0  0  0  0  0  0  0  0
   -2.0661  -10.6994   18.1916 C   0  0  0  0  0  0  0  0  0  0  0  0
    5.2703   -7.5691   27.1123 C   0  0  0  0  0  0  0  0  0  0  0  0
    1.6204   -9.9887   17.2935 C   0  0  0  0  0  0  0  0  0  0  0  0
    1.8931   -7.9265   16.2047 C   0  0  0  0  0  0  0  0  0  0  0  0
    2.4396   -9.0801   16.7132 C   0  0  0  0  0  0  0  0  0  0  0  0
   -0.2575   -8.6234   16.8582 C   0  0  0  0  0  0  0  0  0  0  0  0
    4.0614   -7.0367   27.0106 N   0  0  0  0  0  0  0  0  0  0  0  0
   -2.9133  -11.6279   18.7578 C   0  0  0  0  0  0  0  0  0  0  0  0
    4.5688  -10.1291   29.5758 C   0  0  0  0  0  0  0  0  0  0  0  0
    2.1008   -9.0410   29.1852 N   0  0  0  0  0  0  0  0  0  0  0  0
    3.4829  -10.5697   30.2091 N   0  0  0  0  0  0  0  0  0  0  0  0
   -0.3363   -6.1172   27.5628 C   0  0  0  0  0  0  0  0  0  0  0  0
    3.0331   -7.4400   27.6362 C   0  0  0  0  0  0  0  0  0  0  0  0
    5.4553   -8.5933   27.9644 C   0  0  0  0  0  0  0  0  0  0  0  0
   -2.3870  -12.8440   19.2512 C   0  0  0  0  0  0  0  0  0  0  0  0
    0.5331   -7.6964   16.2751 C   0  0  0  0  0  0  0  0  0  0  0  0
   -0.6740  -10.8737   18.0482 C   0  0  0  0  0  0  0  0  0  0  0  0
    5.6751  -10.5870   29.7637 O   0  0  0  0  0  0  0  0  0  0  0  0
    1.7612   -5.6483   26.7172 C   0  0  0  0  0  0  0  0  0  0  0  0
    0.2221   -9.8326   17.4055 C   0  0  0  0  0  0  0  0  0  0  0  0
    4.3850   -9.0730   28.6745 C   0  0  0  0  0  0  0  0  0  0  0  0
  1  7  4  0
  1 22  4  0
  2 17  4  0
  2 20  4  0
  2 28  4  0
  3  6  1  0
  3 19  1  0
  4 19  1  0
  4 26  1  0
  5 17  4  0
  5 18  4  0
  6 20  1  0
  6 26  1  0
  7 24  4  0
  8 15  4  0
  8 24  4  0
  9 14  4  0
  9 21  4  0
 10 12  4  0
 10 27  4  0
 11 12  4  0
 11 23  4  0
 13 23  4  0
 13 27  4  0
 14 20  4  0
 15 22  4  0
 16 18  4  0
 16 25  2  0
 16 28  4  0
 21 28  4  0
 24 27  1  0
M  END
$$$$

 Created by Python create_sdf_string function

 28 31  0  0  0  0  0  0  0  0999 V2000
   -1.0054  -13.0622   19.1198 C   0  0  0  0  0  0  0  0  0  0  0  0
    3.1478   -8.5360   28.5161 C   0  0  0  0  0  0  0  0  0  0  0  0
    0.5798   -7.1906   27.9330 C   0  0  0  0  0  0  0  0  0  0  0  0
    0.3978   -5.1561   26.6955 C   0  0  0  0  0  0  0  0  0  0  0  0
    2.3063  -10.0533   30.0125 C   0  0  0  0  0  0  0  0  0  0  0  0
    1.8591   -6.8254   27.4685 N   0  0  0  0  0  0  0  0  0  0  0  0
   -0.2167  -12.1055   18.5568 C   0  0  0  0  0  0  0  0  0  0  0  0
   -2.0661  -10.6994   18.1916 C   0  0  0  0  0  0  0  0  0  0  0  0
    5.2703   -7.5691   27.1123 C   0  0  0  0  0  0  0  0  0  0  0  0
    1.6204   -9.9887   17.2935 C   0  0  0  0  0  0  0  0  0  0  0  0
    1.8931   -7.9265   16.2047 C   0  0  0  0  0  0  0  0  0  0  0  0
    2.4396   -9.0801   16.7132 C   0  0  0  0  0  0  0  0  0  0  0  0
   -0.2575   -8.6234   16.8582 C   0  0  0  0  0  0  0  0  0  0  0  0
    4.0614   -7.0367   27.0106 N   0  0  0  0  0  0  0  0  0  0  0  0
   -2.9133  -11.6279   18.7578 C   0  0  0  0  0  0  0  0  0  0  0  0
    4.5688  -10.1291   29.5758 C   0  0  0  0  0  0  0  0  0  0  0  0
    2.1008   -9.0410   29.1852 N   0  0  0  0  0  0  0  0  0  0  0  0
    3.4829  -10.5697   30.2091 N   0  0  0  0  0  0  0  0  0  0  0  0
   -0.3363   -6.1172   27.5628 C   0  0  0  0  0  0  0  0  0  0  0  0
    3.0331   -7.4400   27.6362 C   0  0  0  0  0  0  0  0  0  0  0  0
    5.4553   -8.5933   27.9644 C   0  0  0  0  0  0  0  0  0  0  0  0
   -2.3870  -12.8440   19.2512 C   0  0  0  0  0  0  0  0  0  0  0  0
    0.5331   -7.6964   16.2751 C   0  0  0  0  0  0  0  0  0  0  0  0
   -0.6740  -10.8737   18.0482 C   0  0  0  0  0  0  0  0  0  0  0  0
    5.6751  -10.5870   29.7637 O   0  0  0  0  0  0  0  0  0  0  0  0
    1.7612   -5.6483   26.7172 C   0  0  0  0  0  0  0  0  0  0  0  0
    0.2221   -9.8326   17.4055 C   0  0  0  0  0  0  0  0  0  0  0  0
    4.3850   -9.0730   28.6745 C   0  0  0  0  0  0  0  0  0  0  0  0
  1  7  4  0
  1 22  4  0
  2 17  4  0
  2 20  4  0
  2 28  4  0
  3  6  1  0
  3 19  1  0
  4 19  1  0
  4 26  1  0
  5 17  4  0
  5 18  4  0
  6 20  1  0
  6 26  1  0
  7 24  4  0
  8 15  4  0
  8 24  4  0
  9 14  4  0
  9 21  4  0
 10 12  4  0
 10 27  4  0
 11 12  4  0
 11 23  4  0
 13 23  4  0
 13 27  4  0
 14 20  4  0
 15 22  4  0
 16 18  4  0
 16 25  2  0
 16 28  4  0
 21 28  4  0
 24 27  1  0
M  END
$$$$

 Created by Python create_sdf_string function

 28 31  0  0  0  0  0  0  0  0999 V2000
   -1.0054  -13.0622   19.1198 C   0  0  0  0  0  0  0  0  0  0  0  0
    3.1478   -8.5360   28.5161 C   0  0  0  0  0  0  0  0  0  0  0  0
    0.5798   -7.1906   27.9330 C   0  0  0  0  0  0  0  0  0  0  0  0
    0.3978   -5.1561   26.6955 C   0  0  0  0  0  0  0  0  0  0  0  0
    2.3063  -10.0533   30.0125 C   0  0  0  0  0  0  0  0  0  0  0  0
    1.8591   -6.8254   27.4685 N   0  0  0  0  0  0  0  0  0  0  0  0
   -0.2167  -12.1055   18.5568 C   0  0  0  0  0  0  0  0  0  0  0  0
   -2.0661  -10.6994   18.1916 C   0  0  0  0  0  0  0  0  0  0  0  0
    5.2703   -7.5691   27.1123 C   0  0  0  0  0  0  0  0  0  0  0  0
    1.6204   -9.9887   17.2935 C   0  0  0  0  0  0  0  0  0  0  0  0
    1.8931   -7.9265   16.2047 C   0  0  0  0  0  0  0  0  0  0  0  0
    2.4396   -9.0801   16.7132 C   0  0  0  0  0  0  0  0  0  0  0  0
   -0.2575   -8.6234   16.8582 C   0  0  0  0  0  0  0  0  0  0  0  0
    4.0614   -7.0367   27.0106 N   0  0  0  0  0  0  0  0  0  0  0  0
   -2.9133  -11.6279   18.7578 C   0  0  0  0  0  0  0  0  0  0  0  0
    4.5688  -10.1291   29.5758 C   0  0  0  0  0  0  0  0  0  0  0  0
    2.1008   -9.0410   29.1852 N   0  0  0  0  0  0  0  0  0  0  0  0
    3.4829  -10.5697   30.2091 N   0  0  0  0  0  0  0  0  0  0  0  0
   -0.3363   -6.1172   27.5628 C   0  0  0  0  0  0  0  0  0  0  0  0
    3.0331   -7.4400   27.6362 C   0  0  0  0  0  0  0  0  0  0  0  0
    5.4553   -8.5933   27.9644 C   0  0  0  0  0  0  0  0  0  0  0  0
   -2.3870  -12.8440   19.2512 C   0  0  0  0  0  0  0  0  0  0  0  0
    0.5331   -7.6964   16.2751 C   0  0  0  0  0  0  0  0  0  0  0  0
   -0.6740  -10.8737   18.0482 C   0  0  0  0  0  0  0  0  0  0  0  0
    5.6751  -10.5870   29.7637 O   0  0  0  0  0  0  0  0  0  0  0  0
    1.7612   -5.6483   26.7172 C   0  0  0  0  0  0  0  0  0  0  0  0
    0.2221   -9.8326   17.4055 C   0  0  0  0  0  0  0  0  0  0  0  0
    4.3850   -9.0730   28.6745 C   0  0  0  0  0  0  0  0  0  0  0  0
  1  7  4  0
  1 22  4  0
  2 17  4  0
  2 20  4  0
  2 28  4  0
  3  6  1  0
  3 19  1  0
  4 19  1  0
  4 26  1  0
  5 17  4  0
  5 18  4  0
  6 20  1  0
  6 26  1  0
  7 24  4  0
  8 15  4  0
  8 24  4  0
  9 14  4  0
  9 21  4  0
 10 12  4  0
 10 27  4  0
 11 12  4  0
 11 23  4  0
 13 23  4  0
 13 27  4  0
 14 20  4  0
 15 22  4  0
 16 18  4  0
 16 25  2  0
 16 28  4  0
 21 28  4  0
 24 27  1  0
M  END
$$$$

 Created by Python create_sdf_string function

 28 31  0  0  0  0  0  0  0  0999 V2000
   -1.0054  -13.0622   19.1198 C   0  0  0  0  0  0  0  0  0  0  0  0
    3.1478   -8.5360   28.5161 C   0  0  0  0  0  0  0  0  0  0  0  0
    0.5798   -7.1906   27.9330 C   0  0  0  0  0  0  0  0  0  0  0  0
    0.3978   -5.1561   26.6955 C   0  0  0  0  0  0  0  0  0  0  0  0
    2.3063  -10.0533   30.0125 C   0  0  0  0  0  0  0  0  0  0  0  0
    1.8591   -6.8254   27.4685 N   0  0  0  0  0  0  0  0  0  0  0  0
   -0.2167  -12.1055   18.5568 C   0  0  0  0  0  0  0  0  0  0  0  0
   -2.0661  -10.6994   18.1916 C   0  0  0  0  0  0  0  0  0  0  0  0
    5.2703   -7.5691   27.1123 C   0  0  0  0  0  0  0  0  0  0  0  0
    1.6204   -9.9887   17.2935 C   0  0  0  0  0  0  0  0  0  0  0  0
    1.8931   -7.9265   16.2047 C   0  0  0  0  0  0  0  0  0  0  0  0
    2.4396   -9.0801   16.7132 C   0  0  0  0  0  0  0  0  0  0  0  0
   -0.2575   -8.6234   16.8582 C   0  0  0  0  0  0  0  0  0  0  0  0
    4.0614   -7.0367   27.0106 N   0  0  0  0  0  0  0  0  0  0  0  0
   -2.9133  -11.6279   18.7578 C   0  0  0  0  0  0  0  0  0  0  0  0
    4.5688  -10.1291   29.5758 C   0  0  0  0  0  0  0  0  0  0  0  0
    2.1008   -9.0410   29.1852 N   0  0  0  0  0  0  0  0  0  0  0  0
    3.4829  -10.5697   30.2091 N   0  0  0  0  0  0  0  0  0  0  0  0
   -0.3363   -6.1172   27.5628 C   0  0  0  0  0  0  0  0  0  0  0  0
    3.0331   -7.4400   27.6362 C   0  0  0  0  0  0  0  0  0  0  0  0
    5.4553   -8.5933   27.9644 C   0  0  0  0  0  0  0  0  0  0  0  0
   -2.3870  -12.8440   19.2512 C   0  0  0  0  0  0  0  0  0  0  0  0
    0.5331   -7.6964   16.2751 C   0  0  0  0  0  0  0  0  0  0  0  0
   -0.6740  -10.8737   18.0482 C   0  0  0  0  0  0  0  0  0  0  0  0
    5.6751  -10.5870   29.7637 O   0  0  0  0  0  0  0  0  0  0  0  0
    1.7612   -5.6483   26.7172 C   0  0  0  0  0  0  0  0  0  0  0  0
    0.2221   -9.8326   17.4055 C   0  0  0  0  0  0  0  0  0  0  0  0
    4.3850   -9.0730   28.6745 C   0  0  0  0  0  0  0  0  0  0  0  0
  1  7  4  0
  1 22  4  0
  2 17  4  0
  2 20  4  0
  2 28  4  0
  3  6  1  0
  3 19  1  0
  4 19  1  0
  4 26  1  0
  5 17  4  0
  5 18  4  0
  6 20  1  0
  6 26  1  0
  7 24  4  0
  8 15  4  0
  8 24  4  0
  9 14  4  0
  9 21  4  0
 10 12  4  0
 10 27  4  0
 11 12  4  0
 11 23  4  0
 13 23  4  0
 13 27  4  0
 14 20  4  0
 15 22  4  0
 16 18  4  0
 16 25  2  0
 16 28  4  0
 21 28  4  0
 24 27  1  0
M  END
$$$$

 Created by Python create_sdf_string function

 28 31  0  0  0  0  0  0  0  0999 V2000
   -1.0054  -13.0622   19.1198 C   0  0  0  0  0  0  0  0  0  0  0  0
    3.1478   -8.5360   28.5161 C   0  0  0  0  0  0  0  0  0  0  0  0
    0.5798   -7.1906   27.9330 C   0  0  0  0  0  0  0  0  0  0  0  0
    0.3978   -5.1561   26.6955 C   0  0  0  0  0  0  0  0  0  0  0  0
    2.3063  -10.0533   30.0125 C   0  0  0  0  0  0  0  0  0  0  0  0
    1.8591   -6.8254   27.4685 N   0  0  0  0  0  0  0  0  0  0  0  0
   -0.2167  -12.1055   18.5568 C   0  0  0  0  0  0  0  0  0  0  0  0
   -2.0661  -10.6994   18.1916 C   0  0  0  0  0  0  0  0  0  0  0  0
    5.2703   -7.5691   27.1123 C   0  0  0  0  0  0  0  0  0  0  0  0
    1.6204   -9.9887   17.2935 C   0  0  0  0  0  0  0  0  0  0  0  0
    1.8931   -7.9265   16.2047 C   0  0  0  0  0  0  0  0  0  0  0  0
    2.4396   -9.0801   16.7132 C   0  0  0  0  0  0  0  0  0  0  0  0
   -0.2575   -8.6234   16.8582 C   0  0  0  0  0  0  0  0  0  0  0  0
    4.0614   -7.0367   27.0106 N   0  0  0  0  0  0  0  0  0  0  0  0
   -2.9133  -11.6279   18.7578 C   0  0  0  0  0  0  0  0  0  0  0  0
    4.5688  -10.1291   29.5758 C   0  0  0  0  0  0  0  0  0  0  0  0
    2.1008   -9.0410   29.1852 N   0  0  0  0  0  0  0  0  0  0  0  0
    3.4829  -10.5697   30.2091 N   0  0  0  0  0  0  0  0  0  0  0  0
   -0.3363   -6.1172   27.5628 C   0  0  0  0  0  0  0  0  0  0  0  0
    3.0331   -7.4400   27.6362 C   0  0  0  0  0  0  0  0  0  0  0  0
    5.4553   -8.5933   27.9644 C   0  0  0  0  0  0  0  0  0  0  0  0
   -2.3870  -12.8440   19.2512 C   0  0  0  0  0  0  0  0  0  0  0  0
    0.5331   -7.6964   16.2751 C   0  0  0  0  0  0  0  0  0  0  0  0
   -0.6740  -10.8737   18.0482 C   0  0  0  0  0  0  0  0  0  0  0  0
    5.6751  -10.5870   29.7637 O   0  0  0  0  0  0  0  0  0  0  0  0
    1.7612   -5.6483   26.7172 C   0  0  0  0  0  0  0  0  0  0  0  0
    0.2221   -9.8326   17.4055 C   0  0  0  0  0  0  0  0  0  0  0  0
    4.3850   -9.0730   28.6745 C   0  0  0  0  0  0  0  0  0  0  0  0
  1  7  4  0
  1 22  4  0
  2 17  4  0
  2 20  4  0
  2 28  4  0
  3  6  1  0
  3 19  1  0
  4 19  1  0
  4 26  1  0
  5 17  4  0
  5 18  4  0
  6 20  1  0
  6 26  1  0
  7 24  4  0
  8 15  4  0
  8 24  4  0
  9 14  4  0
  9 21  4  0
 10 12  4  0
 10 27  4  0
 11 12  4  0
 11 23  4  0
 13 23  4  0
 13 27  4  0
 14 20  4  0
 15 22  4  0
 16 18  4  0
 16 25  2  0
 16 28  4  0
 21 28  4  0
 24 27  1  0
M  END
$$$$

 Created by Python create_sdf_string function

 28 31  0  0  0  0  0  0  0  0999 V2000
   -1.0054  -13.0622   19.1198 C   0  0  0  0  0  0  0  0  0  0  0  0
    3.1478   -8.5360   28.5161 C   0  0  0  0  0  0  0  0  0  0  0  0
    0.5798   -7.1906   27.9330 C   0  0  0  0  0  0  0  0  0  0  0  0
    0.3978   -5.1561   26.6955 C   0  0  0  0  0  0  0  0  0  0  0  0
    2.3063  -10.0533   30.0125 C   0  0  0  0  0  0  0  0  0  0  0  0
    1.8591   -6.8254   27.4685 N   0  0  0  0  0  0  0  0  0  0  0  0
   -0.2167  -12.1055   18.5568 C   0  0  0  0  0  0  0  0  0  0  0  0
   -2.0661  -10.6994   18.1916 C   0  0  0  0  0  0  0  0  0  0  0  0
    5.2703   -7.5691   27.1123 C   0  0  0  0  0  0  0  0  0  0  0  0
    1.6204   -9.9887   17.2935 C   0  0  0  0  0  0  0  0  0  0  0  0
    1.8931   -7.9265   16.2047 C   0  0  0  0  0  0  0  0  0  0  0  0
    2.4396   -9.0801   16.7132 C   0  0  0  0  0  0  0  0  0  0  0  0
   -0.2575   -8.6234   16.8582 C   0  0  0  0  0  0  0  0  0  0  0  0
    4.0614   -7.0367   27.0106 N   0  0  0  0  0  0  0  0  0  0  0  0
   -2.9133  -11.6279   18.7578 C   0  0  0  0  0  0  0  0  0  0  0  0
    4.5688  -10.1291   29.5758 C   0  0  0  0  0  0  0  0  0  0  0  0
    2.1008   -9.0410   29.1852 N   0  0  0  0  0  0  0  0  0  0  0  0
    3.4829  -10.5697   30.2091 N   0  0  0  0  0  0  0  0  0  0  0  0
   -0.3363   -6.1172   27.5628 C   0  0  0  0  0  0  0  0  0  0  0  0
    3.0331   -7.4400   27.6362 C   0  0  0  0  0  0  0  0  0  0  0  0
    5.4553   -8.5933   27.9644 C   0  0  0  0  0  0  0  0  0  0  0  0
   -2.3870  -12.8440   19.2512 C   0  0  0  0  0  0  0  0  0  0  0  0
    0.5331   -7.6964   16.2751 C   0  0  0  0  0  0  0  0  0  0  0  0
   -0.6740  -10.8737   18.0482 C   0  0  0  0  0  0  0  0  0  0  0  0
    5.6751  -10.5870   29.7637 O   0  0  0  0  0  0  0  0  0  0  0  0
    1.7612   -5.6483   26.7172 C   0  0  0  0  0  0  0  0  0  0  0  0
    0.2221   -9.8326   17.4055 C   0  0  0  0  0  0  0  0  0  0  0  0
    4.3850   -9.0730   28.6745 C   0  0  0  0  0  0  0  0  0  0  0  0
  1  7  4  0
  1 22  4  0
  2 17  4  0
  2 20  4  0
  2 28  4  0
  3  6  1  0
  3 19  1  0
  4 19  1  0
  4 26  1  0
  5 17  4  0
  5 18  4  0
  6 20  1  0
  6 26  1  0
  7 24  4  0
  8 15  4  0
  8 24  4  0
  9 14  4  0
  9 21  4  0
 10 12  4  0
 10 27  4  0
 11 12  4  0
 11 23  4  0
 13 23  4  0
 13 27  4  0
 14 20  4  0
 15 22  4  0
 16 18  4  0
 16 25  2  0
 16 28  4  0
 21 28  4  0
 24 27  1  0
M  END
$$$$

 Created by Python create_sdf_string function

 28 31  0  0  0  0  0  0  0  0999 V2000
   -1.0054  -13.0622   19.1198 C   0  0  0  0  0  0  0  0  0  0  0  0
    3.1478   -8.5360   28.5161 C   0  0  0  0  0  0  0  0  0  0  0  0
    0.5798   -7.1906   27.9330 C   0  0  0  0  0  0  0  0  0  0  0  0
    0.3978   -5.1561   26.6955 C   0  0  0  0  0  0  0  0  0  0  0  0
    2.3063  -10.0533   30.0125 C   0  0  0  0  0  0  0  0  0  0  0  0
    1.8591   -6.8254   27.4685 N   0  0  0  0  0  0  0  0  0  0  0  0
   -0.2167  -12.1055   18.5568 C   0  0  0  0  0  0  0  0  0  0  0  0
   -2.0661  -10.6994   18.1916 C   0  0  0  0  0  0  0  0  0  0  0  0
    5.2703   -7.5691   27.1123 C   0  0  0  0  0  0  0  0  0  0  0  0
    1.6204   -9.9887   17.2935 C   0  0  0  0  0  0  0  0  0  0  0  0
    1.8931   -7.9265   16.2047 C   0  0  0  0  0  0  0  0  0  0  0  0
    2.4396   -9.0801   16.7132 C   0  0  0  0  0  0  0  0  0  0  0  0
   -0.2575   -8.6234   16.8582 C   0  0  0  0  0  0  0  0  0  0  0  0
    4.0614   -7.0367   27.0106 N   0  0  0  0  0  0  0  0  0  0  0  0
   -2.9133  -11.6279   18.7578 C   0  0  0  0  0  0  0  0  0  0  0  0
    4.5688  -10.1291   29.5758 C   0  0  0  0  0  0  0  0  0  0  0  0
    2.1008   -9.0410   29.1852 N   0  0  0  0  0  0  0  0  0  0  0  0
    3.4829  -10.5697   30.2091 N   0  0  0  0  0  0  0  0  0  0  0  0
   -0.3363   -6.1172   27.5628 C   0  0  0  0  0  0  0  0  0  0  0  0
    3.0331   -7.4400   27.6362 C   0  0  0  0  0  0  0  0  0  0  0  0
    5.4553   -8.5933   27.9644 C   0  0  0  0  0  0  0  0  0  0  0  0
   -2.3870  -12.8440   19.2512 C   0  0  0  0  0  0  0  0  0  0  0  0
    0.5331   -7.6964   16.2751 C   0  0  0  0  0  0  0  0  0  0  0  0
   -0.6740  -10.8737   18.0482 C   0  0  0  0  0  0  0  0  0  0  0  0
    5.6751  -10.5870   29.7637 O   0  0  0  0  0  0  0  0  0  0  0  0
    1.7612   -5.6483   26.7172 C   0  0  0  0  0  0  0  0  0  0  0  0
    0.2221   -9.8326   17.4055 C   0  0  0  0  0  0  0  0  0  0  0  0
    4.3850   -9.0730   28.6745 C   0  0  0  0  0  0  0  0  0  0  0  0
  1  7  4  0
  1 22  4  0
  2 17  4  0
  2 20  4  0
  2 28  4  0
  3  6  1  0
  3 19  1  0
  4 19  1  0
  4 26  1  0
  5 17  4  0
  5 18  4  0
  6 20  1  0
  6 26  1  0
  7 24  4  0
  8 15  4  0
  8 24  4  0
  9 14  4  0
  9 21  4  0
 10 12  4  0
 10 27  4  0
 11 12  4  0
 11 23  4  0
 13 23  4  0
 13 27  4  0
 14 20  4  0
 15 22  4  0
 16 18  4  0
 16 25  2  0
 16 28  4  0
 21 28  4  0
 24 27  1  0
M  END
$$$$

 Created by Python create_sdf_string function

 28 31  0  0  0  0  0  0  0  0999 V2000
   -1.0054  -13.0622   19.1198 C   0  0  0  0  0  0  0  0  0  0  0  0
    3.1478   -8.5360   28.5161 C   0  0  0  0  0  0  0  0  0  0  0  0
    0.5798   -7.1906   27.9330 C   0  0  0  0  0  0  0  0  0  0  0  0
    0.3978   -5.1561   26.6955 C   0  0  0  0  0  0  0  0  0  0  0  0
    2.3063  -10.0533   30.0125 C   0  0  0  0  0  0  0  0  0  0  0  0
    1.8591   -6.8254   27.4685 N   0  0  0  0  0  0  0  0  0  0  0  0
   -0.2167  -12.1055   18.5568 C   0  0  0  0  0  0  0  0  0  0  0  0
   -2.0661  -10.6994   18.1916 C   0  0  0  0  0  0  0  0  0  0  0  0
    5.2703   -7.5691   27.1123 C   0  0  0  0  0  0  0  0  0  0  0  0
    1.6204   -9.9887   17.2935 C   0  0  0  0  0  0  0  0  0  0  0  0
    1.8931   -7.9265   16.2047 C   0  0  0  0  0  0  0  0  0  0  0  0
    2.4396   -9.0801   16.7132 C   0  0  0  0  0  0  0  0  0  0  0  0
   -0.2575   -8.6234   16.8582 C   0  0  0  0  0  0  0  0  0  0  0  0
    4.0614   -7.0367   27.0106 N   0  0  0  0  0  0  0  0  0  0  0  0
   -2.9133  -11.6279   18.7578 C   0  0  0  0  0  0  0  0  0  0  0  0
    4.5688  -10.1291   29.5758 C   0  0  0  0  0  0  0  0  0  0  0  0
    2.1008   -9.0410   29.1852 N   0  0  0  0  0  0  0  0  0  0  0  0
    3.4829  -10.5697   30.2091 N   0  0  0  0  0  0  0  0  0  0  0  0
   -0.3363   -6.1172   27.5628 C   0  0  0  0  0  0  0  0  0  0  0  0
    3.0331   -7.4400   27.6362 C   0  0  0  0  0  0  0  0  0  0  0  0
    5.4553   -8.5933   27.9644 C   0  0  0  0  0  0  0  0  0  0  0  0
   -2.3870  -12.8440   19.2512 C   0  0  0  0  0  0  0  0  0  0  0  0
    0.5331   -7.6964   16.2751 C   0  0  0  0  0  0  0  0  0  0  0  0
   -0.6740  -10.8737   18.0482 C   0  0  0  0  0  0  0  0  0  0  0  0
    5.6751  -10.5870   29.7637 O   0  0  0  0  0  0  0  0  0  0  0  0
    1.7612   -5.6483   26.7172 C   0  0  0  0  0  0  0  0  0  0  0  0
    0.2221   -9.8326   17.4055 C   0  0  0  0  0  0  0  0  0  0  0  0
    4.3850   -9.0730   28.6745 C   0  0  0  0  0  0  0  0  0  0  0  0
  1  7  4  0
  1 22  4  0
  2 17  4  0
  2 20  4  0
  2 28  4  0
  3  6  1  0
  3 19  1  0
  4 19  1  0
  4 26  1  0
  5 17  4  0
  5 18  4  0
  6 20  1  0
  6 26  1  0
  7 24  4  0
  8 15  4  0
  8 24  4  0
  9 14  4  0
  9 21  4  0
 10 12  4  0
 10 27  4  0
 11 12  4  0
 11 23  4  0
 13 23  4  0
 13 27  4  0
 14 20  4  0
 15 22  4  0
 16 18  4  0
 16 25  2  0
 16 28  4  0
 21 28  4  0
 24 27  1  0
M  END
$$$$

 Created by Python create_sdf_string function

 28 31  0  0  0  0  0  0  0  0999 V2000
   -1.0054  -13.0622   19.1198 C   0  0  0  0  0  0  0  0  0  0  0  0
    3.1478   -8.5360   28.5161 C   0  0  0  0  0  0  0  0  0  0  0  0
    0.5798   -7.1906   27.9330 C   0  0  0  0  0  0  0  0  0  0  0  0
    0.3978   -5.1561   26.6955 C   0  0  0  0  0  0  0  0  0  0  0  0
    2.3063  -10.0533   30.0125 C   0  0  0  0  0  0  0  0  0  0  0  0
    1.8591   -6.8254   27.4685 N   0  0  0  0  0  0  0  0  0  0  0  0
   -0.2167  -12.1055   18.5568 C   0  0  0  0  0  0  0  0  0  0  0  0
   -2.0661  -10.6994   18.1916 C   0  0  0  0  0  0  0  0  0  0  0  0
    5.2703   -7.5691   27.1123 C   0  0  0  0  0  0  0  0  0  0  0  0
    1.6204   -9.9887   17.2935 C   0  0  0  0  0  0  0  0  0  0  0  0
    1.8931   -7.9265   16.2047 C   0  0  0  0  0  0  0  0  0  0  0  0
    2.4396   -9.0801   16.7132 C   0  0  0  0  0  0  0  0  0  0  0  0
   -0.2575   -8.6234   16.8582 C   0  0  0  0  0  0  0  0  0  0  0  0
    4.0614   -7.0367   27.0106 N   0  0  0  0  0  0  0  0  0  0  0  0
   -2.9133  -11.6279   18.7578 C   0  0  0  0  0  0  0  0  0  0  0  0
    4.5688  -10.1291   29.5758 C   0  0  0  0  0  0  0  0  0  0  0  0
    2.1008   -9.0410   29.1852 N   0  0  0  0  0  0  0  0  0  0  0  0
    3.4829  -10.5697   30.2091 N   0  0  0  0  0  0  0  0  0  0  0  0
   -0.3363   -6.1172   27.5628 C   0  0  0  0  0  0  0  0  0  0  0  0
    3.0331   -7.4400   27.6362 C   0  0  0  0  0  0  0  0  0  0  0  0
    5.4553   -8.5933   27.9644 C   0  0  0  0  0  0  0  0  0  0  0  0
   -2.3870  -12.8440   19.2512 C   0  0  0  0  0  0  0  0  0  0  0  0
    0.5331   -7.6964   16.2751 C   0  0  0  0  0  0  0  0  0  0  0  0
   -0.6740  -10.8737   18.0482 C   0  0  0  0  0  0  0  0  0  0  0  0
    5.6751  -10.5870   29.7637 O   0  0  0  0  0  0  0  0  0  0  0  0
    1.7612   -5.6483   26.7172 C   0  0  0  0  0  0  0  0  0  0  0  0
    0.2221   -9.8326   17.4055 C   0  0  0  0  0  0  0  0  0  0  0  0
    4.3850   -9.0730   28.6745 C   0  0  0  0  0  0  0  0  0  0  0  0
  1  7  4  0
  1 22  4  0
  2 17  4  0
  2 20  4  0
  2 28  4  0
  3  6  1  0
  3 19  1  0
  4 19  1  0
  4 26  1  0
  5 17  4  0
  5 18  4  0
  6 20  1  0
  6 26  1  0
  7 24  4  0
  8 15  4  0
  8 24  4  0
  9 14  4  0
  9 21  4  0
 10 12  4  0
 10 27  4  0
 11 12  4  0
 11 23  4  0
 13 23  4  0
 13 27  4  0
 14 20  4  0
 15 22  4  0
 16 18  4  0
 16 25  2  0
 16 28  4  0
 21 28  4  0
 24 27  1  0
M  END
$$$$

 Created by Python create_sdf_string function

 28 31  0  0  0  0  0  0  0  0999 V2000
   -1.0054  -13.0622   19.1198 C   0  0  0  0  0  0  0  0  0  0  0  0
    3.1478   -8.5360   28.5161 C   0  0  0  0  0  0  0  0  0  0  0  0
    0.5798   -7.1906   27.9330 C   0  0  0  0  0  0  0  0  0  0  0  0
    0.3978   -5.1561   26.6955 C   0  0  0  0  0  0  0  0  0  0  0  0
    2.3063  -10.0533   30.0125 C   0  0  0  0  0  0  0  0  0  0  0  0
    1.8591   -6.8254   27.4685 N   0  0  0  0  0  0  0  0  0  0  0  0
   -0.2167  -12.1055   18.5568 C   0  0  0  0  0  0  0  0  0  0  0  0
   -2.0661  -10.6994   18.1916 C   0  0  0  0  0  0  0  0  0  0  0  0
    5.2703   -7.5691   27.1123 C   0  0  0  0  0  0  0  0  0  0  0  0
    1.6204   -9.9887   17.2935 C   0  0  0  0  0  0  0  0  0  0  0  0
    1.8931   -7.9265   16.2047 C   0  0  0  0  0  0  0  0  0  0  0  0
    2.4396   -9.0801   16.7132 C   0  0  0  0  0  0  0  0  0  0  0  0
   -0.2575   -8.6234   16.8582 C   0  0  0  0  0  0  0  0  0  0  0  0
    4.0614   -7.0367   27.0106 N   0  0  0  0  0  0  0  0  0  0  0  0
   -2.9133  -11.6279   18.7578 C   0  0  0  0  0  0  0  0  0  0  0  0
    4.5688  -10.1291   29.5758 C   0  0  0  0  0  0  0  0  0  0  0  0
    2.1008   -9.0410   29.1852 N   0  0  0  0  0  0  0  0  0  0  0  0
    3.4829  -10.5697   30.2091 N   0  0  0  0  0  0  0  0  0  0  0  0
   -0.3363   -6.1172   27.5628 C   0  0  0  0  0  0  0  0  0  0  0  0
    3.0331   -7.4400   27.6362 C   0  0  0  0  0  0  0  0  0  0  0  0
    5.4553   -8.5933   27.9644 C   0  0  0  0  0  0  0  0  0  0  0  0
   -2.3870  -12.8440   19.2512 C   0  0  0  0  0  0  0  0  0  0  0  0
    0.5331   -7.6964   16.2751 C   0  0  0  0  0  0  0  0  0  0  0  0
   -0.6740  -10.8737   18.0482 C   0  0  0  0  0  0  0  0  0  0  0  0
    5.6751  -10.5870   29.7637 O   0  0  0  0  0  0  0  0  0  0  0  0
    1.7612   -5.6483   26.7172 C   0  0  0  0  0  0  0  0  0  0  0  0
    0.2221   -9.8326   17.4055 C   0  0  0  0  0  0  0  0  0  0  0  0
    4.3850   -9.0730   28.6745 C   0  0  0  0  0  0  0  0  0  0  0  0
  1  7  4  0
  1 22  4  0
  2 17  4  0
  2 20  4  0
  2 28  4  0
  3  6  1  0
  3 19  1  0
  4 19  1  0
  4 26  1  0
  5 17  4  0
  5 18  4  0
  6 20  1  0
  6 26  1  0
  7 24  4  0
  8 15  4  0
  8 24  4  0
  9 14  4  0
  9 21  4  0
 10 12  4  0
 10 27  4  0
 11 12  4  0
 11 23  4  0
 13 23  4  0
 13 27  4  0
 14 20  4  0
 15 22  4  0
 16 18  4  0
 16 25  2  0
 16 28  4  0
 21 28  4  0
 24 27  1  0
M  END
$$$$

 Created by Python create_sdf_string function

 28 31  0  0  0  0  0  0  0  0999 V2000
   -1.0054  -13.0622   19.1198 C   0  0  0  0  0  0  0  0  0  0  0  0
    3.1478   -8.5360   28.5161 C   0  0  0  0  0  0  0  0  0  0  0  0
    0.5798   -7.1906   27.9330 C   0  0  0  0  0  0  0  0  0  0  0  0
    0.3978   -5.1561   26.6955 C   0  0  0  0  0  0  0  0  0  0  0  0
    2.3063  -10.0533   30.0125 C   0  0  0  0  0  0  0  0  0  0  0  0
    1.8591   -6.8254   27.4685 N   0  0  0  0  0  0  0  0  0  0  0  0
   -0.2167  -12.1055   18.5568 C   0  0  0  0  0  0  0  0  0  0  0  0
   -2.0661  -10.6994   18.1916 C   0  0  0  0  0  0  0  0  0  0  0  0
    5.2703   -7.5691   27.1123 C   0  0  0  0  0  0  0  0  0  0  0  0
    1.6204   -9.9887   17.2935 C   0  0  0  0  0  0  0  0  0  0  0  0
    1.8931   -7.9265   16.2047 C   0  0  0  0  0  0  0  0  0  0  0  0
    2.4396   -9.0801   16.7132 C   0  0  0  0  0  0  0  0  0  0  0  0
   -0.2575   -8.6234   16.8582 C   0  0  0  0  0  0  0  0  0  0  0  0
    4.0614   -7.0367   27.0106 N   0  0  0  0  0  0  0  0  0  0  0  0
   -2.9133  -11.6279   18.7578 C   0  0  0  0  0  0  0  0  0  0  0  0
    4.5688  -10.1291   29.5758 C   0  0  0  0  0  0  0  0  0  0  0  0
    2.1008   -9.0410   29.1852 N   0  0  0  0  0  0  0  0  0  0  0  0
    3.4829  -10.5697   30.2091 N   0  0  0  0  0  0  0  0  0  0  0  0
   -0.3363   -6.1172   27.5628 C   0  0  0  0  0  0  0  0  0  0  0  0
    3.0331   -7.4400   27.6362 C   0  0  0  0  0  0  0  0  0  0  0  0
    5.4553   -8.5933   27.9644 C   0  0  0  0  0  0  0  0  0  0  0  0
   -2.3870  -12.8440   19.2512 C   0  0  0  0  0  0  0  0  0  0  0  0
    0.5331   -7.6964   16.2751 C   0  0  0  0  0  0  0  0  0  0  0  0
   -0.6740  -10.8737   18.0482 C   0  0  0  0  0  0  0  0  0  0  0  0
    5.6751  -10.5870   29.7637 O   0  0  0  0  0  0  0  0  0  0  0  0
    1.7612   -5.6483   26.7172 C   0  0  0  0  0  0  0  0  0  0  0  0
    0.2221   -9.8326   17.4055 C   0  0  0  0  0  0  0  0  0  0  0  0
    4.3850   -9.0730   28.6745 C   0  0  0  0  0  0  0  0  0  0  0  0
  1  7  4  0
  1 22  4  0
  2 17  4  0
  2 20  4  0
  2 28  4  0
  3  6  1  0
  3 19  1  0
  4 19  1  0
  4 26  1  0
  5 17  4  0
  5 18  4  0
  6 20  1  0
  6 26  1  0
  7 24  4  0
  8 15  4  0
  8 24  4  0
  9 14  4  0
  9 21  4  0
 10 12  4  0
 10 27  4  0
 11 12  4  0
 11 23  4  0
 13 23  4  0
 13 27  4  0
 14 20  4  0
 15 22  4  0
 16 18  4  0
 16 25  2  0
 16 28  4  0
 21 28  4  0
 24 27  1  0
M  END
$$$$

 Created by Python create_sdf_string function

 28 31  0  0  0  0  0  0  0  0999 V2000
   -1.0054  -13.0622   19.1198 C   0  0  0  0  0  0  0  0  0  0  0  0
    3.1478   -8.5360   28.5161 C   0  0  0  0  0  0  0  0  0  0  0  0
    0.5798   -7.1906   27.9330 C   0  0  0  0  0  0  0  0  0  0  0  0
    0.3978   -5.1561   26.6955 C   0  0  0  0  0  0  0  0  0  0  0  0
    2.3063  -10.0533   30.0125 C   0  0  0  0  0  0  0  0  0  0  0  0
    1.8591   -6.8254   27.4685 N   0  0  0  0  0  0  0  0  0  0  0  0
   -0.2167  -12.1055   18.5568 C   0  0  0  0  0  0  0  0  0  0  0  0
   -2.0661  -10.6994   18.1916 C   0  0  0  0  0  0  0  0  0  0  0  0
    5.2703   -7.5691   27.1123 C   0  0  0  0  0  0  0  0  0  0  0  0
    1.6204   -9.9887   17.2935 C   0  0  0  0  0  0  0  0  0  0  0  0
    1.8931   -7.9265   16.2047 C   0  0  0  0  0  0  0  0  0  0  0  0
    2.4396   -9.0801   16.7132 C   0  0  0  0  0  0  0  0  0  0  0  0
   -0.2575   -8.6234   16.8582 C   0  0  0  0  0  0  0  0  0  0  0  0
    4.0614   -7.0367   27.0106 N   0  0  0  0  0  0  0  0  0  0  0  0
   -2.9133  -11.6279   18.7578 C   0  0  0  0  0  0  0  0  0  0  0  0
    4.5688  -10.1291   29.5758 C   0  0  0  0  0  0  0  0  0  0  0  0
    2.1008   -9.0410   29.1852 N   0  0  0  0  0  0  0  0  0  0  0  0
    3.4829  -10.5697   30.2091 N   0  0  0  0  0  0  0  0  0  0  0  0
   -0.3363   -6.1172   27.5628 C   0  0  0  0  0  0  0  0  0  0  0  0
    3.0331   -7.4400   27.6362 C   0  0  0  0  0  0  0  0  0  0  0  0
    5.4553   -8.5933   27.9644 C   0  0  0  0  0  0  0  0  0  0  0  0
   -2.3870  -12.8440   19.2512 C   0  0  0  0  0  0  0  0  0  0  0  0
    0.5331   -7.6964   16.2751 C   0  0  0  0  0  0  0  0  0  0  0  0
   -0.6740  -10.8737   18.0482 C   0  0  0  0  0  0  0  0  0  0  0  0
    5.6751  -10.5870   29.7637 O   0  0  0  0  0  0  0  0  0  0  0  0
    1.7612   -5.6483   26.7172 C   0  0  0  0  0  0  0  0  0  0  0  0
    0.2221   -9.8326   17.4055 C   0  0  0  0  0  0  0  0  0  0  0  0
    4.3850   -9.0730   28.6745 C   0  0  0  0  0  0  0  0  0  0  0  0
  1  7  4  0
  1 22  4  0
  2 17  4  0
  2 20  4  0
  2 28  4  0
  3  6  1  0
  3 19  1  0
  4 19  1  0
  4 26  1  0
  5 17  4  0
  5 18  4  0
  6 20  1  0
  6 26  1  0
  7 24  4  0
  8 15  4  0
  8 24  4  0
  9 14  4  0
  9 21  4  0
 10 12  4  0
 10 27  4  0
 11 12  4  0
 11 23  4  0
 13 23  4  0
 13 27  4  0
 14 20  4  0
 15 22  4  0
 16 18  4  0
 16 25  2  0
 16 28  4  0
 21 28  4  0
 24 27  1  0
M  END
$$$$

 Created by Python create_sdf_string function

 28 31  0  0  0  0  0  0  0  0999 V2000
   -1.0054  -13.0622   19.1198 C   0  0  0  0  0  0  0  0  0  0  0  0
    3.1478   -8.5360   28.5161 C   0  0  0  0  0  0  0  0  0  0  0  0
    0.5798   -7.1906   27.9330 C   0  0  0  0  0  0  0  0  0  0  0  0
    0.3978   -5.1561   26.6955 C   0  0  0  0  0  0  0  0  0  0  0  0
    2.3063  -10.0533   30.0125 C   0  0  0  0  0  0  0  0  0  0  0  0
    1.8591   -6.8254   27.4685 N   0  0  0  0  0  0  0  0  0  0  0  0
   -0.2167  -12.1055   18.5568 C   0  0  0  0  0  0  0  0  0  0  0  0
   -2.0661  -10.6994   18.1916 C   0  0  0  0  0  0  0  0  0  0  0  0
    5.2703   -7.5691   27.1123 C   0  0  0  0  0  0  0  0  0  0  0  0
    1.6204   -9.9887   17.2935 C   0  0  0  0  0  0  0  0  0  0  0  0
    1.8931   -7.9265   16.2047 C   0  0  0  0  0  0  0  0  0  0  0  0
    2.4396   -9.0801   16.7132 C   0  0  0  0  0  0  0  0  0  0  0  0
   -0.2575   -8.6234   16.8582 C   0  0  0  0  0  0  0  0  0  0  0  0
    4.0614   -7.0367   27.0106 N   0  0  0  0  0  0  0  0  0  0  0  0
   -2.9133  -11.6279   18.7578 C   0  0  0  0  0  0  0  0  0  0  0  0
    4.5688  -10.1291   29.5758 C   0  0  0  0  0  0  0  0  0  0  0  0
    2.1008   -9.0410   29.1852 N   0  0  0  0  0  0  0  0  0  0  0  0
    3.4829  -10.5697   30.2091 N   0  0  0  0  0  0  0  0  0  0  0  0
   -0.3363   -6.1172   27.5628 C   0  0  0  0  0  0  0  0  0  0  0  0
    3.0331   -7.4400   27.6362 C   0  0  0  0  0  0  0  0  0  0  0  0
    5.4553   -8.5933   27.9644 C   0  0  0  0  0  0  0  0  0  0  0  0
   -2.3870  -12.8440   19.2512 C   0  0  0  0  0  0  0  0  0  0  0  0
    0.5331   -7.6964   16.2751 C   0  0  0  0  0  0  0  0  0  0  0  0
   -0.6740  -10.8737   18.0482 C   0  0  0  0  0  0  0  0  0  0  0  0
    5.6751  -10.5870   29.7637 O   0  0  0  0  0  0  0  0  0  0  0  0
    1.7612   -5.6483   26.7172 C   0  0  0  0  0  0  0  0  0  0  0  0
    0.2221   -9.8326   17.4055 C   0  0  0  0  0  0  0  0  0  0  0  0
    4.3850   -9.0730   28.6745 C   0  0  0  0  0  0  0  0  0  0  0  0
  1  7  4  0
  1 22  4  0
  2 17  4  0
  2 20  4  0
  2 28  4  0
  3  6  1  0
  3 19  1  0
  4 19  1  0
  4 26  1  0
  5 17  4  0
  5 18  4  0
  6 20  1  0
  6 26  1  0
  7 24  4  0
  8 15  4  0
  8 24  4  0
  9 14  4  0
  9 21  4  0
 10 12  4  0
 10 27  4  0
 11 12  4  0
 11 23  4  0
 13 23  4  0
 13 27  4  0
 14 20  4  0
 15 22  4  0
 16 18  4  0
 16 25  2  0
 16 28  4  0
 21 28  4  0
 24 27  1  0
M  END
$$$$

 Created by Python create_sdf_string function

 28 31  0  0  0  0  0  0  0  0999 V2000
   -1.0054  -13.0622   19.1198 C   0  0  0  0  0  0  0  0  0  0  0  0
    3.1478   -8.5360   28.5161 C   0  0  0  0  0  0  0  0  0  0  0  0
    0.5798   -7.1906   27.9330 C   0  0  0  0  0  0  0  0  0  0  0  0
    0.3978   -5.1561   26.6955 C   0  0  0  0  0  0  0  0  0  0  0  0
    2.3063  -10.0533   30.0125 C   0  0  0  0  0  0  0  0  0  0  0  0
    1.8591   -6.8254   27.4685 N   0  0  0  0  0  0  0  0  0  0  0  0
   -0.2167  -12.1055   18.5568 C   0  0  0  0  0  0  0  0  0  0  0  0
   -2.0661  -10.6994   18.1916 C   0  0  0  0  0  0  0  0  0  0  0  0
    5.2703   -7.5691   27.1123 C   0  0  0  0  0  0  0  0  0  0  0  0
    1.6204   -9.9887   17.2935 C   0  0  0  0  0  0  0  0  0  0  0  0
    1.8931   -7.9265   16.2047 C   0  0  0  0  0  0  0  0  0  0  0  0
    2.4396   -9.0801   16.7132 C   0  0  0  0  0  0  0  0  0  0  0  0
   -0.2575   -8.6234   16.8582 C   0  0  0  0  0  0  0  0  0  0  0  0
    4.0614   -7.0367   27.0106 N   0  0  0  0  0  0  0  0  0  0  0  0
   -2.9133  -11.6279   18.7578 C   0  0  0  0  0  0  0  0  0  0  0  0
    4.5688  -10.1291   29.5758 C   0  0  0  0  0  0  0  0  0  0  0  0
    2.1008   -9.0410   29.1852 N   0  0  0  0  0  0  0  0  0  0  0  0
    3.4829  -10.5697   30.2091 N   0  0  0  0  0  0  0  0  0  0  0  0
   -0.3363   -6.1172   27.5628 C   0  0  0  0  0  0  0  0  0  0  0  0
    3.0331   -7.4400   27.6362 C   0  0  0  0  0  0  0  0  0  0  0  0
    5.4553   -8.5933   27.9644 C   0  0  0  0  0  0  0  0  0  0  0  0
   -2.3870  -12.8440   19.2512 C   0  0  0  0  0  0  0  0  0  0  0  0
    0.5331   -7.6964   16.2751 C   0  0  0  0  0  0  0  0  0  0  0  0
   -0.6740  -10.8737   18.0482 C   0  0  0  0  0  0  0  0  0  0  0  0
    5.6751  -10.5870   29.7637 O   0  0  0  0  0  0  0  0  0  0  0  0
    1.7612   -5.6483   26.7172 C   0  0  0  0  0  0  0  0  0  0  0  0
    0.2221   -9.8326   17.4055 C   0  0  0  0  0  0  0  0  0  0  0  0
    4.3850   -9.0730   28.6745 C   0  0  0  0  0  0  0  0  0  0  0  0
  1  7  4  0
  1 22  4  0
  2 17  4  0
  2 20  4  0
  2 28  4  0
  3  6  1  0
  3 19  1  0
  4 19  1  0
  4 26  1  0
  5 17  4  0
  5 18  4  0
  6 20  1  0
  6 26  1  0
  7 24  4  0
  8 15  4  0
  8 24  4  0
  9 14  4  0
  9 21  4  0
 10 12  4  0
 10 27  4  0
 11 12  4  0
 11 23  4  0
 13 23  4  0
 13 27  4  0
 14 20  4  0
 15 22  4  0
 16 18  4  0
 16 25  2  0
 16 28  4  0
 21 28  4  0
 24 27  1  0
M  END
$$$$

 Created by Python create_sdf_string function

 28 31  0  0  0  0  0  0  0  0999 V2000
   -1.0054  -13.0622   19.1198 C   0  0  0  0  0  0  0  0  0  0  0  0
    3.1478   -8.5360   28.5161 C   0  0  0  0  0  0  0  0  0  0  0  0
    0.5798   -7.1906   27.9330 C   0  0  0  0  0  0  0  0  0  0  0  0
    0.3978   -5.1561   26.6955 C   0  0  0  0  0  0  0  0  0  0  0  0
    2.3063  -10.0533   30.0125 C   0  0  0  0  0  0  0  0  0  0  0  0
    1.8591   -6.8254   27.4685 N   0  0  0  0  0  0  0  0  0  0  0  0
   -0.2167  -12.1055   18.5568 C   0  0  0  0  0  0  0  0  0  0  0  0
   -2.0661  -10.6994   18.1916 C   0  0  0  0  0  0  0  0  0  0  0  0
    5.2703   -7.5691   27.1123 C   0  0  0  0  0  0  0  0  0  0  0  0
    1.6204   -9.9887   17.2935 C   0  0  0  0  0  0  0  0  0  0  0  0
    1.8931   -7.9265   16.2047 C   0  0  0  0  0  0  0  0  0  0  0  0
    2.4396   -9.0801   16.7132 C   0  0  0  0  0  0  0  0  0  0  0  0
   -0.2575   -8.6234   16.8582 C   0  0  0  0  0  0  0  0  0  0  0  0
    4.0614   -7.0367   27.0106 N   0  0  0  0  0  0  0  0  0  0  0  0
   -2.9133  -11.6279   18.7578 C   0  0  0  0  0  0  0  0  0  0  0  0
    4.5688  -10.1291   29.5758 C   0  0  0  0  0  0  0  0  0  0  0  0
    2.1008   -9.0410   29.1852 N   0  0  0  0  0  0  0  0  0  0  0  0
    3.4829  -10.5697   30.2091 N   0  0  0  0  0  0  0  0  0  0  0  0
   -0.3363   -6.1172   27.5628 C   0  0  0  0  0  0  0  0  0  0  0  0
    3.0331   -7.4400   27.6362 C   0  0  0  0  0  0  0  0  0  0  0  0
    5.4553   -8.5933   27.9644 C   0  0  0  0  0  0  0  0  0  0  0  0
   -2.3870  -12.8440   19.2512 C   0  0  0  0  0  0  0  0  0  0  0  0
    0.5331   -7.6964   16.2751 C   0  0  0  0  0  0  0  0  0  0  0  0
   -0.6740  -10.8737   18.0482 C   0  0  0  0  0  0  0  0  0  0  0  0
    5.6751  -10.5870   29.7637 O   0  0  0  0  0  0  0  0  0  0  0  0
    1.7612   -5.6483   26.7172 C   0  0  0  0  0  0  0  0  0  0  0  0
    0.2221   -9.8326   17.4055 C   0  0  0  0  0  0  0  0  0  0  0  0
    4.3850   -9.0730   28.6745 C   0  0  0  0  0  0  0  0  0  0  0  0
  1  7  4  0
  1 22  4  0
  2 17  4  0
  2 20  4  0
  2 28  4  0
  3  6  1  0
  3 19  1  0
  4 19  1  0
  4 26  1  0
  5 17  4  0
  5 18  4  0
  6 20  1  0
  6 26  1  0
  7 24  4  0
  8 15  4  0
  8 24  4  0
  9 14  4  0
  9 21  4  0
 10 12  4  0
 10 27  4  0
 11 12  4  0
 11 23  4  0
 13 23  4  0
 13 27  4  0
 14 20  4  0
 15 22  4  0
 16 18  4  0
 16 25  2  0
 16 28  4  0
 21 28  4  0
 24 27  1  0
M  END
$$$$

 Created by Python create_sdf_string function

 28 31  0  0  0  0  0  0  0  0999 V2000
   -1.0054  -13.0622   19.1198 C   0  0  0  0  0  0  0  0  0  0  0  0
    3.1478   -8.5360   28.5161 C   0  0  0  0  0  0  0  0  0  0  0  0
    0.5798   -7.1906   27.9330 C   0  0  0  0  0  0  0  0  0  0  0  0
    0.3978   -5.1561   26.6955 C   0  0  0  0  0  0  0  0  0  0  0  0
    2.3063  -10.0533   30.0125 C   0  0  0  0  0  0  0  0  0  0  0  0
    1.8591   -6.8254   27.4685 N   0  0  0  0  0  0  0  0  0  0  0  0
   -0.2167  -12.1055   18.5568 C   0  0  0  0  0  0  0  0  0  0  0  0
   -2.0661  -10.6994   18.1916 C   0  0  0  0  0  0  0  0  0  0  0  0
    5.2703   -7.5691   27.1123 C   0  0  0  0  0  0  0  0  0  0  0  0
    1.6204   -9.9887   17.2935 C   0  0  0  0  0  0  0  0  0  0  0  0
    1.8931   -7.9265   16.2047 C   0  0  0  0  0  0  0  0  0  0  0  0
    2.4396   -9.0801   16.7132 C   0  0  0  0  0  0  0  0  0  0  0  0
   -0.2575   -8.6234   16.8582 C   0  0  0  0  0  0  0  0  0  0  0  0
    4.0614   -7.0367   27.0106 N   0  0  0  0  0  0  0  0  0  0  0  0
   -2.9133  -11.6279   18.7578 C   0  0  0  0  0  0  0  0  0  0  0  0
    4.5688  -10.1291   29.5758 C   0  0  0  0  0  0  0  0  0  0  0  0
    2.1008   -9.0410   29.1852 N   0  0  0  0  0  0  0  0  0  0  0  0
    3.4829  -10.5697   30.2091 N   0  0  0  0  0  0  0  0  0  0  0  0
   -0.3363   -6.1172   27.5628 C   0  0  0  0  0  0  0  0  0  0  0  0
    3.0331   -7.4400   27.6362 C   0  0  0  0  0  0  0  0  0  0  0  0
    5.4553   -8.5933   27.9644 C   0  0  0  0  0  0  0  0  0  0  0  0
   -2.3870  -12.8440   19.2512 C   0  0  0  0  0  0  0  0  0  0  0  0
    0.5331   -7.6964   16.2751 C   0  0  0  0  0  0  0  0  0  0  0  0
   -0.6740  -10.8737   18.0482 C   0  0  0  0  0  0  0  0  0  0  0  0
    5.6751  -10.5870   29.7637 O   0  0  0  0  0  0  0  0  0  0  0  0
    1.7612   -5.6483   26.7172 C   0  0  0  0  0  0  0  0  0  0  0  0
    0.2221   -9.8326   17.4055 C   0  0  0  0  0  0  0  0  0  0  0  0
    4.3850   -9.0730   28.6745 C   0  0  0  0  0  0  0  0  0  0  0  0
  1  7  4  0
  1 22  4  0
  2 17  4  0
  2 20  4  0
  2 28  4  0
  3  6  1  0
  3 19  1  0
  4 19  1  0
  4 26  1  0
  5 17  4  0
  5 18  4  0
  6 20  1  0
  6 26  1  0
  7 24  4  0
  8 15  4  0
  8 24  4  0
  9 14  4  0
  9 21  4  0
 10 12  4  0
 10 27  4  0
 11 12  4  0
 11 23  4  0
 13 23  4  0
 13 27  4  0
 14 20  4  0
 15 22  4  0
 16 18  4  0
 16 25  2  0
 16 28  4  0
 21 28  4  0
 24 27  1  0
M  END
$$$$

 Created by Python create_sdf_string function

 28 31  0  0  0  0  0  0  0  0999 V2000
   -1.0054  -13.0622   19.1198 C   0  0  0  0  0  0  0  0  0  0  0  0
    3.1478   -8.5360   28.5161 C   0  0  0  0  0  0  0  0  0  0  0  0
    0.5798   -7.1906   27.9330 C   0  0  0  0  0  0  0  0  0  0  0  0
    0.3978   -5.1561   26.6955 C   0  0  0  0  0  0  0  0  0  0  0  0
    2.3063  -10.0533   30.0125 C   0  0  0  0  0  0  0  0  0  0  0  0
    1.8591   -6.8254   27.4685 N   0  0  0  0  0  0  0  0  0  0  0  0
   -0.2167  -12.1055   18.5568 C   0  0  0  0  0  0  0  0  0  0  0  0
   -2.0661  -10.6994   18.1916 C   0  0  0  0  0  0  0  0  0  0  0  0
    5.2703   -7.5691   27.1123 C   0  0  0  0  0  0  0  0  0  0  0  0
    1.6204   -9.9887   17.2935 C   0  0  0  0  0  0  0  0  0  0  0  0
    1.8931   -7.9265   16.2047 C   0  0  0  0  0  0  0  0  0  0  0  0
    2.4396   -9.0801   16.7132 C   0  0  0  0  0  0  0  0  0  0  0  0
   -0.2575   -8.6234   16.8582 C   0  0  0  0  0  0  0  0  0  0  0  0
    4.0614   -7.0367   27.0106 N   0  0  0  0  0  0  0  0  0  0  0  0
   -2.9133  -11.6279   18.7578 C   0  0  0  0  0  0  0  0  0  0  0  0
    4.5688  -10.1291   29.5758 C   0  0  0  0  0  0  0  0  0  0  0  0
    2.1008   -9.0410   29.1852 N   0  0  0  0  0  0  0  0  0  0  0  0
    3.4829  -10.5697   30.2091 N   0  0  0  0  0  0  0  0  0  0  0  0
   -0.3363   -6.1172   27.5628 C   0  0  0  0  0  0  0  0  0  0  0  0
    3.0331   -7.4400   27.6362 C   0  0  0  0  0  0  0  0  0  0  0  0
    5.4553   -8.5933   27.9644 C   0  0  0  0  0  0  0  0  0  0  0  0
   -2.3870  -12.8440   19.2512 C   0  0  0  0  0  0  0  0  0  0  0  0
    0.5331   -7.6964   16.2751 C   0  0  0  0  0  0  0  0  0  0  0  0
   -0.6740  -10.8737   18.0482 C   0  0  0  0  0  0  0  0  0  0  0  0
    5.6751  -10.5870   29.7637 O   0  0  0  0  0  0  0  0  0  0  0  0
    1.7612   -5.6483   26.7172 C   0  0  0  0  0  0  0  0  0  0  0  0
    0.2221   -9.8326   17.4055 C   0  0  0  0  0  0  0  0  0  0  0  0
    4.3850   -9.0730   28.6745 C   0  0  0  0  0  0  0  0  0  0  0  0
  1  7  4  0
  1 22  4  0
  2 17  4  0
  2 20  4  0
  2 28  4  0
  3  6  1  0
  3 19  1  0
  4 19  1  0
  4 26  1  0
  5 17  4  0
  5 18  4  0
  6 20  1  0
  6 26  1  0
  7 24  4  0
  8 15  4  0
  8 24  4  0
  9 14  4  0
  9 21  4  0
 10 12  4  0
 10 27  4  0
 11 12  4  0
 11 23  4  0
 13 23  4  0
 13 27  4  0
 14 20  4  0
 15 22  4  0
 16 18  4  0
 16 25  2  0
 16 28  4  0
 21 28  4  0
 24 27  1  0
M  END
$$$$

 Created by Python create_sdf_string function

 28 31  0  0  0  0  0  0  0  0999 V2000
   -1.0054  -13.0622   19.1198 C   0  0  0  0  0  0  0  0  0  0  0  0
    3.1478   -8.5360   28.5161 C   0  0  0  0  0  0  0  0  0  0  0  0
    0.5798   -7.1906   27.9330 C   0  0  0  0  0  0  0  0  0  0  0  0
    0.3978   -5.1561   26.6955 C   0  0  0  0  0  0  0  0  0  0  0  0
    2.3063  -10.0533   30.0125 C   0  0  0  0  0  0  0  0  0  0  0  0
    1.8591   -6.8254   27.4685 N   0  0  0  0  0  0  0  0  0  0  0  0
   -0.2167  -12.1055   18.5568 C   0  0  0  0  0  0  0  0  0  0  0  0
   -2.0661  -10.6994   18.1916 C   0  0  0  0  0  0  0  0  0  0  0  0
    5.2703   -7.5691   27.1123 C   0  0  0  0  0  0  0  0  0  0  0  0
    1.6204   -9.9887   17.2935 C   0  0  0  0  0  0  0  0  0  0  0  0
    1.8931   -7.9265   16.2047 C   0  0  0  0  0  0  0  0  0  0  0  0
    2.4396   -9.0801   16.7132 C   0  0  0  0  0  0  0  0  0  0  0  0
   -0.2575   -8.6234   16.8582 C   0  0  0  0  0  0  0  0  0  0  0  0
    4.0614   -7.0367   27.0106 N   0  0  0  0  0  0  0  0  0  0  0  0
   -2.9133  -11.6279   18.7578 C   0  0  0  0  0  0  0  0  0  0  0  0
    4.5688  -10.1291   29.5758 C   0  0  0  0  0  0  0  0  0  0  0  0
    2.1008   -9.0410   29.1852 N   0  0  0  0  0  0  0  0  0  0  0  0
    3.4829  -10.5697   30.2091 N   0  0  0  0  0  0  0  0  0  0  0  0
   -0.3363   -6.1172   27.5628 C   0  0  0  0  0  0  0  0  0  0  0  0
    3.0331   -7.4400   27.6362 C   0  0  0  0  0  0  0  0  0  0  0  0
    5.4553   -8.5933   27.9644 C   0  0  0  0  0  0  0  0  0  0  0  0
   -2.3870  -12.8440   19.2512 C   0  0  0  0  0  0  0  0  0  0  0  0
    0.5331   -7.6964   16.2751 C   0  0  0  0  0  0  0  0  0  0  0  0
   -0.6740  -10.8737   18.0482 C   0  0  0  0  0  0  0  0  0  0  0  0
    5.6751  -10.5870   29.7637 O   0  0  0  0  0  0  0  0  0  0  0  0
    1.7612   -5.6483   26.7172 C   0  0  0  0  0  0  0  0  0  0  0  0
    0.2221   -9.8326   17.4055 C   0  0  0  0  0  0  0  0  0  0  0  0
    4.3850   -9.0730   28.6745 C   0  0  0  0  0  0  0  0  0  0  0  0
  1  7  4  0
  1 22  4  0
  2 17  4  0
  2 20  4  0
  2 28  4  0
  3  6  1  0
  3 19  1  0
  4 19  1  0
  4 26  1  0
  5 17  4  0
  5 18  4  0
  6 20  1  0
  6 26  1  0
  7 24  4  0
  8 15  4  0
  8 24  4  0
  9 14  4  0
  9 21  4  0
 10 12  4  0
 10 27  4  0
 11 12  4  0
 11 23  4  0
 13 23  4  0
 13 27  4  0
 14 20  4  0
 15 22  4  0
 16 18  4  0
 16 25  2  0
 16 28  4  0
 21 28  4  0
 24 27  1  0
M  END
$$$$

 Created by Python create_sdf_string function

 28 31  0  0  0  0  0  0  0  0999 V2000
   -1.0054  -13.0622   19.1198 C   0  0  0  0  0  0  0  0  0  0  0  0
    3.1478   -8.5360   28.5161 C   0  0  0  0  0  0  0  0  0  0  0  0
    0.5798   -7.1906   27.9330 C   0  0  0  0  0  0  0  0  0  0  0  0
    0.3978   -5.1561   26.6955 C   0  0  0  0  0  0  0  0  0  0  0  0
    2.3063  -10.0533   30.0125 C   0  0  0  0  0  0  0  0  0  0  0  0
    1.8591   -6.8254   27.4685 N   0  0  0  0  0  0  0  0  0  0  0  0
   -0.2167  -12.1055   18.5568 C   0  0  0  0  0  0  0  0  0  0  0  0
   -2.0661  -10.6994   18.1916 C   0  0  0  0  0  0  0  0  0  0  0  0
    5.2703   -7.5691   27.1123 C   0  0  0  0  0  0  0  0  0  0  0  0
    1.6204   -9.9887   17.2935 C   0  0  0  0  0  0  0  0  0  0  0  0
    1.8931   -7.9265   16.2047 C   0  0  0  0  0  0  0  0  0  0  0  0
    2.4396   -9.0801   16.7132 C   0  0  0  0  0  0  0  0  0  0  0  0
   -0.2575   -8.6234   16.8582 C   0  0  0  0  0  0  0  0  0  0  0  0
    4.0614   -7.0367   27.0106 N   0  0  0  0  0  0  0  0  0  0  0  0
   -2.9133  -11.6279   18.7578 C   0  0  0  0  0  0  0  0  0  0  0  0
    4.5688  -10.1291   29.5758 C   0  0  0  0  0  0  0  0  0  0  0  0
    2.1008   -9.0410   29.1852 N   0  0  0  0  0  0  0  0  0  0  0  0
    3.4829  -10.5697   30.2091 N   0  0  0  0  0  0  0  0  0  0  0  0
   -0.3363   -6.1172   27.5628 C   0  0  0  0  0  0  0  0  0  0  0  0
    3.0331   -7.4400   27.6362 C   0  0  0  0  0  0  0  0  0  0  0  0
    5.4553   -8.5933   27.9644 C   0  0  0  0  0  0  0  0  0  0  0  0
   -2.3870  -12.8440   19.2512 C   0  0  0  0  0  0  0  0  0  0  0  0
    0.5331   -7.6964   16.2751 C   0  0  0  0  0  0  0  0  0  0  0  0
   -0.6740  -10.8737   18.0482 C   0  0  0  0  0  0  0  0  0  0  0  0
    5.6751  -10.5870   29.7637 O   0  0  0  0  0  0  0  0  0  0  0  0
    1.7612   -5.6483   26.7172 C   0  0  0  0  0  0  0  0  0  0  0  0
    0.2221   -9.8326   17.4055 C   0  0  0  0  0  0  0  0  0  0  0  0
    4.3850   -9.0730   28.6745 C   0  0  0  0  0  0  0  0  0  0  0  0
  1  7  4  0
  1 22  4  0
  2 17  4  0
  2 20  4  0
  2 28  4  0
  3  6  1  0
  3 19  1  0
  4 19  1  0
  4 26  1  0
  5 17  4  0
  5 18  4  0
  6 20  1  0
  6 26  1  0
  7 24  4  0
  8 15  4  0
  8 24  4  0
  9 14  4  0
  9 21  4  0
 10 12  4  0
 10 27  4  0
 11 12  4  0
 11 23  4  0
 13 23  4  0
 13 27  4  0
 14 20  4  0
 15 22  4  0
 16 18  4  0
 16 25  2  0
 16 28  4  0
 21 28  4  0
 24 27  1  0
M  END
$$$$

 Created by Python create_sdf_string function

 28 31  0  0  0  0  0  0  0  0999 V2000
   -1.0054  -13.0622   19.1198 C   0  0  0  0  0  0  0  0  0  0  0  0
    3.1478   -8.5360   28.5161 C   0  0  0  0  0  0  0  0  0  0  0  0
    0.5798   -7.1906   27.9330 C   0  0  0  0  0  0  0  0  0  0  0  0
    0.3978   -5.1561   26.6955 C   0  0  0  0  0  0  0  0  0  0  0  0
    2.3063  -10.0533   30.0125 C   0  0  0  0  0  0  0  0  0  0  0  0
    1.8591   -6.8254   27.4685 N   0  0  0  0  0  0  0  0  0  0  0  0
   -0.2167  -12.1055   18.5568 C   0  0  0  0  0  0  0  0  0  0  0  0
   -2.0661  -10.6994   18.1916 C   0  0  0  0  0  0  0  0  0  0  0  0
    5.2703   -7.5691   27.1123 C   0  0  0  0  0  0  0  0  0  0  0  0
    1.6204   -9.9887   17.2935 C   0  0  0  0  0  0  0  0  0  0  0  0
    1.8931   -7.9265   16.2047 C   0  0  0  0  0  0  0  0  0  0  0  0
    2.4396   -9.0801   16.7132 C   0  0  0  0  0  0  0  0  0  0  0  0
   -0.2575   -8.6234   16.8582 C   0  0  0  0  0  0  0  0  0  0  0  0
    4.0614   -7.0367   27.0106 N   0  0  0  0  0  0  0  0  0  0  0  0
   -2.9133  -11.6279   18.7578 C   0  0  0  0  0  0  0  0  0  0  0  0
    4.5688  -10.1291   29.5758 C   0  0  0  0  0  0  0  0  0  0  0  0
    2.1008   -9.0410   29.1852 N   0  0  0  0  0  0  0  0  0  0  0  0
    3.4829  -10.5697   30.2091 N   0  0  0  0  0  0  0  0  0  0  0  0
   -0.3363   -6.1172   27.5628 C   0  0  0  0  0  0  0  0  0  0  0  0
    3.0331   -7.4400   27.6362 C   0  0  0  0  0  0  0  0  0  0  0  0
    5.4553   -8.5933   27.9644 C   0  0  0  0  0  0  0  0  0  0  0  0
   -2.3870  -12.8440   19.2512 C   0  0  0  0  0  0  0  0  0  0  0  0
    0.5331   -7.6964   16.2751 C   0  0  0  0  0  0  0  0  0  0  0  0
   -0.6740  -10.8737   18.0482 C   0  0  0  0  0  0  0  0  0  0  0  0
    5.6751  -10.5870   29.7637 O   0  0  0  0  0  0  0  0  0  0  0  0
    1.7612   -5.6483   26.7172 C   0  0  0  0  0  0  0  0  0  0  0  0
    0.2221   -9.8326   17.4055 C   0  0  0  0  0  0  0  0  0  0  0  0
    4.3850   -9.0730   28.6745 C   0  0  0  0  0  0  0  0  0  0  0  0
  1  7  4  0
  1 22  4  0
  2 17  4  0
  2 20  4  0
  2 28  4  0
  3  6  1  0
  3 19  1  0
  4 19  1  0
  4 26  1  0
  5 17  4  0
  5 18  4  0
  6 20  1  0
  6 26  1  0
  7 24  4  0
  8 15  4  0
  8 24  4  0
  9 14  4  0
  9 21  4  0
 10 12  4  0
 10 27  4  0
 11 12  4  0
 11 23  4  0
 13 23  4  0
 13 27  4  0
 14 20  4  0
 15 22  4  0
 16 18  4  0
 16 25  2  0
 16 28  4  0
 21 28  4  0
 24 27  1  0
M  END
$$$$

 Created by Python create_sdf_string function

 28 31  0  0  0  0  0  0  0  0999 V2000
   -1.0054  -13.0622   19.1198 C   0  0  0  0  0  0  0  0  0  0  0  0
    3.1478   -8.5360   28.5161 C   0  0  0  0  0  0  0  0  0  0  0  0
    0.5798   -7.1906   27.9330 C   0  0  0  0  0  0  0  0  0  0  0  0
    0.3978   -5.1561   26.6955 C   0  0  0  0  0  0  0  0  0  0  0  0
    2.3063  -10.0533   30.0125 C   0  0  0  0  0  0  0  0  0  0  0  0
    1.8591   -6.8254   27.4685 N   0  0  0  0  0  0  0  0  0  0  0  0
   -0.2167  -12.1055   18.5568 C   0  0  0  0  0  0  0  0  0  0  0  0
   -2.0661  -10.6994   18.1916 C   0  0  0  0  0  0  0  0  0  0  0  0
    5.2703   -7.5691   27.1123 C   0  0  0  0  0  0  0  0  0  0  0  0
    1.6204   -9.9887   17.2935 C   0  0  0  0  0  0  0  0  0  0  0  0
    1.8931   -7.9265   16.2047 C   0  0  0  0  0  0  0  0  0  0  0  0
    2.4396   -9.0801   16.7132 C   0  0  0  0  0  0  0  0  0  0  0  0
   -0.2575   -8.6234   16.8582 C   0  0  0  0  0  0  0  0  0  0  0  0
    4.0614   -7.0367   27.0106 N   0  0  0  0  0  0  0  0  0  0  0  0
   -2.9133  -11.6279   18.7578 C   0  0  0  0  0  0  0  0  0  0  0  0
    4.5688  -10.1291   29.5758 C   0  0  0  0  0  0  0  0  0  0  0  0
    2.1008   -9.0410   29.1852 N   0  0  0  0  0  0  0  0  0  0  0  0
    3.4829  -10.5697   30.2091 N   0  0  0  0  0  0  0  0  0  0  0  0
   -0.3363   -6.1172   27.5628 C   0  0  0  0  0  0  0  0  0  0  0  0
    3.0331   -7.4400   27.6362 C   0  0  0  0  0  0  0  0  0  0  0  0
    5.4553   -8.5933   27.9644 C   0  0  0  0  0  0  0  0  0  0  0  0
   -2.3870  -12.8440   19.2512 C   0  0  0  0  0  0  0  0  0  0  0  0
    0.5331   -7.6964   16.2751 C   0  0  0  0  0  0  0  0  0  0  0  0
   -0.6740  -10.8737   18.0482 C   0  0  0  0  0  0  0  0  0  0  0  0
    5.6751  -10.5870   29.7637 O   0  0  0  0  0  0  0  0  0  0  0  0
    1.7612   -5.6483   26.7172 C   0  0  0  0  0  0  0  0  0  0  0  0
    0.2221   -9.8326   17.4055 C   0  0  0  0  0  0  0  0  0  0  0  0
    4.3850   -9.0730   28.6745 C   0  0  0  0  0  0  0  0  0  0  0  0
  1  7  4  0
  1 22  4  0
  2 17  4  0
  2 20  4  0
  2 28  4  0
  3  6  1  0
  3 19  1  0
  4 19  1  0
  4 26  1  0
  5 17  4  0
  5 18  4  0
  6 20  1  0
  6 26  1  0
  7 24  4  0
  8 15  4  0
  8 24  4  0
  9 14  4  0
  9 21  4  0
 10 12  4  0
 10 27  4  0
 11 12  4  0
 11 23  4  0
 13 23  4  0
 13 27  4  0
 14 20  4  0
 15 22  4  0
 16 18  4  0
 16 25  2  0
 16 28  4  0
 21 28  4  0
 24 27  1  0
M  END
$$$$

 Created by Python create_sdf_string function

 28 31  0  0  0  0  0  0  0  0999 V2000
   -1.0054  -13.0622   19.1198 C   0  0  0  0  0  0  0  0  0  0  0  0
    3.1478   -8.5360   28.5161 C   0  0  0  0  0  0  0  0  0  0  0  0
    0.5798   -7.1906   27.9330 C   0  0  0  0  0  0  0  0  0  0  0  0
    0.3978   -5.1561   26.6955 C   0  0  0  0  0  0  0  0  0  0  0  0
    2.3063  -10.0533   30.0125 C   0  0  0  0  0  0  0  0  0  0  0  0
    1.8591   -6.8254   27.4685 N   0  0  0  0  0  0  0  0  0  0  0  0
   -0.2167  -12.1055   18.5568 C   0  0  0  0  0  0  0  0  0  0  0  0
   -2.0661  -10.6994   18.1916 C   0  0  0  0  0  0  0  0  0  0  0  0
    5.2703   -7.5691   27.1123 C   0  0  0  0  0  0  0  0  0  0  0  0
    1.6204   -9.9887   17.2935 C   0  0  0  0  0  0  0  0  0  0  0  0
    1.8931   -7.9265   16.2047 C   0  0  0  0  0  0  0  0  0  0  0  0
    2.4396   -9.0801   16.7132 C   0  0  0  0  0  0  0  0  0  0  0  0
   -0.2575   -8.6234   16.8582 C   0  0  0  0  0  0  0  0  0  0  0  0
    4.0614   -7.0367   27.0106 N   0  0  0  0  0  0  0  0  0  0  0  0
   -2.9133  -11.6279   18.7578 C   0  0  0  0  0  0  0  0  0  0  0  0
    4.5688  -10.1291   29.5758 C   0  0  0  0  0  0  0  0  0  0  0  0
    2.1008   -9.0410   29.1852 N   0  0  0  0  0  0  0  0  0  0  0  0
    3.4829  -10.5697   30.2091 N   0  0  0  0  0  0  0  0  0  0  0  0
   -0.3363   -6.1172   27.5628 C   0  0  0  0  0  0  0  0  0  0  0  0
    3.0331   -7.4400   27.6362 C   0  0  0  0  0  0  0  0  0  0  0  0
    5.4553   -8.5933   27.9644 C   0  0  0  0  0  0  0  0  0  0  0  0
   -2.3870  -12.8440   19.2512 C   0  0  0  0  0  0  0  0  0  0  0  0
    0.5331   -7.6964   16.2751 C   0  0  0  0  0  0  0  0  0  0  0  0
   -0.6740  -10.8737   18.0482 C   0  0  0  0  0  0  0  0  0  0  0  0
    5.6751  -10.5870   29.7637 O   0  0  0  0  0  0  0  0  0  0  0  0
    1.7612   -5.6483   26.7172 C   0  0  0  0  0  0  0  0  0  0  0  0
    0.2221   -9.8326   17.4055 C   0  0  0  0  0  0  0  0  0  0  0  0
    4.3850   -9.0730   28.6745 C   0  0  0  0  0  0  0  0  0  0  0  0
  1  7  4  0
  1 22  4  0
  2 17  4  0
  2 20  4  0
  2 28  4  0
  3  6  1  0
  3 19  1  0
  4 19  1  0
  4 26  1  0
  5 17  4  0
  5 18  4  0
  6 20  1  0
  6 26  1  0
  7 24  4  0
  8 15  4  0
  8 24  4  0
  9 14  4  0
  9 21  4  0
 10 12  4  0
 10 27  4  0
 11 12  4  0
 11 23  4  0
 13 23  4  0
 13 27  4  0
 14 20  4  0
 15 22  4  0
 16 18  4  0
 16 25  2  0
 16 28  4  0
 21 28  4  0
 24 27  1  0
M  END
$$$$

 Created by Python create_sdf_string function

 28 31  0  0  0  0  0  0  0  0999 V2000
   -1.0054  -13.0622   19.1198 C   0  0  0  0  0  0  0  0  0  0  0  0
    3.1478   -8.5360   28.5161 C   0  0  0  0  0  0  0  0  0  0  0  0
    0.5798   -7.1906   27.9330 C   0  0  0  0  0  0  0  0  0  0  0  0
    0.3978   -5.1561   26.6955 C   0  0  0  0  0  0  0  0  0  0  0  0
    2.3063  -10.0533   30.0125 C   0  0  0  0  0  0  0  0  0  0  0  0
    1.8591   -6.8254   27.4685 N   0  0  0  0  0  0  0  0  0  0  0  0
   -0.2167  -12.1055   18.5568 C   0  0  0  0  0  0  0  0  0  0  0  0
   -2.0661  -10.6994   18.1916 C   0  0  0  0  0  0  0  0  0  0  0  0
    5.2703   -7.5691   27.1123 C   0  0  0  0  0  0  0  0  0  0  0  0
    1.6204   -9.9887   17.2935 C   0  0  0  0  0  0  0  0  0  0  0  0
    1.8931   -7.9265   16.2047 C   0  0  0  0  0  0  0  0  0  0  0  0
    2.4396   -9.0801   16.7132 C   0  0  0  0  0  0  0  0  0  0  0  0
   -0.2575   -8.6234   16.8582 C   0  0  0  0  0  0  0  0  0  0  0  0
    4.0614   -7.0367   27.0106 N   0  0  0  0  0  0  0  0  0  0  0  0
   -2.9133  -11.6279   18.7578 C   0  0  0  0  0  0  0  0  0  0  0  0
    4.5688  -10.1291   29.5758 C   0  0  0  0  0  0  0  0  0  0  0  0
    2.1008   -9.0410   29.1852 N   0  0  0  0  0  0  0  0  0  0  0  0
    3.4829  -10.5697   30.2091 N   0  0  0  0  0  0  0  0  0  0  0  0
   -0.3363   -6.1172   27.5628 C   0  0  0  0  0  0  0  0  0  0  0  0
    3.0331   -7.4400   27.6362 C   0  0  0  0  0  0  0  0  0  0  0  0
    5.4553   -8.5933   27.9644 C   0  0  0  0  0  0  0  0  0  0  0  0
   -2.3870  -12.8440   19.2512 C   0  0  0  0  0  0  0  0  0  0  0  0
    0.5331   -7.6964   16.2751 C   0  0  0  0  0  0  0  0  0  0  0  0
   -0.6740  -10.8737   18.0482 C   0  0  0  0  0  0  0  0  0  0  0  0
    5.6751  -10.5870   29.7637 O   0  0  0  0  0  0  0  0  0  0  0  0
    1.7612   -5.6483   26.7172 C   0  0  0  0  0  0  0  0  0  0  0  0
    0.2221   -9.8326   17.4055 C   0  0  0  0  0  0  0  0  0  0  0  0
    4.3850   -9.0730   28.6745 C   0  0  0  0  0  0  0  0  0  0  0  0
  1  7  4  0
  1 22  4  0
  2 17  4  0
  2 20  4  0
  2 28  4  0
  3  6  1  0
  3 19  1  0
  4 19  1  0
  4 26  1  0
  5 17  4  0
  5 18  4  0
  6 20  1  0
  6 26  1  0
  7 24  4  0
  8 15  4  0
  8 24  4  0
  9 14  4  0
  9 21  4  0
 10 12  4  0
 10 27  4  0
 11 12  4  0
 11 23  4  0
 13 23  4  0
 13 27  4  0
 14 20  4  0
 15 22  4  0
 16 18  4  0
 16 25  2  0
 16 28  4  0
 21 28  4  0
 24 27  1  0
M  END
$$$$

 Created by Python create_sdf_string function

 28 31  0  0  0  0  0  0  0  0999 V2000
   -1.0054  -13.0622   19.1198 C   0  0  0  0  0  0  0  0  0  0  0  0
    3.1478   -8.5360   28.5161 C   0  0  0  0  0  0  0  0  0  0  0  0
    0.5798   -7.1906   27.9330 C   0  0  0  0  0  0  0  0  0  0  0  0
    0.3978   -5.1561   26.6955 C   0  0  0  0  0  0  0  0  0  0  0  0
    2.3063  -10.0533   30.0125 C   0  0  0  0  0  0  0  0  0  0  0  0
    1.8591   -6.8254   27.4685 N   0  0  0  0  0  0  0  0  0  0  0  0
   -0.2167  -12.1055   18.5568 C   0  0  0  0  0  0  0  0  0  0  0  0
   -2.0661  -10.6994   18.1916 C   0  0  0  0  0  0  0  0  0  0  0  0
    5.2703   -7.5691   27.1123 C   0  0  0  0  0  0  0  0  0  0  0  0
    1.6204   -9.9887   17.2935 C   0  0  0  0  0  0  0  0  0  0  0  0
    1.8931   -7.9265   16.2047 C   0  0  0  0  0  0  0  0  0  0  0  0
    2.4396   -9.0801   16.7132 C   0  0  0  0  0  0  0  0  0  0  0  0
   -0.2575   -8.6234   16.8582 C   0  0  0  0  0  0  0  0  0  0  0  0
    4.0614   -7.0367   27.0106 N   0  0  0  0  0  0  0  0  0  0  0  0
   -2.9133  -11.6279   18.7578 C   0  0  0  0  0  0  0  0  0  0  0  0
    4.5688  -10.1291   29.5758 C   0  0  0  0  0  0  0  0  0  0  0  0
    2.1008   -9.0410   29.1852 N   0  0  0  0  0  0  0  0  0  0  0  0
    3.4829  -10.5697   30.2091 N   0  0  0  0  0  0  0  0  0  0  0  0
   -0.3363   -6.1172   27.5628 C   0  0  0  0  0  0  0  0  0  0  0  0
    3.0331   -7.4400   27.6362 C   0  0  0  0  0  0  0  0  0  0  0  0
    5.4553   -8.5933   27.9644 C   0  0  0  0  0  0  0  0  0  0  0  0
   -2.3870  -12.8440   19.2512 C   0  0  0  0  0  0  0  0  0  0  0  0
    0.5331   -7.6964   16.2751 C   0  0  0  0  0  0  0  0  0  0  0  0
   -0.6740  -10.8737   18.0482 C   0  0  0  0  0  0  0  0  0  0  0  0
    5.6751  -10.5870   29.7637 O   0  0  0  0  0  0  0  0  0  0  0  0
    1.7612   -5.6483   26.7172 C   0  0  0  0  0  0  0  0  0  0  0  0
    0.2221   -9.8326   17.4055 C   0  0  0  0  0  0  0  0  0  0  0  0
    4.3850   -9.0730   28.6745 C   0  0  0  0  0  0  0  0  0  0  0  0
  1  7  4  0
  1 22  4  0
  2 17  4  0
  2 20  4  0
  2 28  4  0
  3  6  1  0
  3 19  1  0
  4 19  1  0
  4 26  1  0
  5 17  4  0
  5 18  4  0
  6 20  1  0
  6 26  1  0
  7 24  4  0
  8 15  4  0
  8 24  4  0
  9 14  4  0
  9 21  4  0
 10 12  4  0
 10 27  4  0
 11 12  4  0
 11 23  4  0
 13 23  4  0
 13 27  4  0
 14 20  4  0
 15 22  4  0
 16 18  4  0
 16 25  2  0
 16 28  4  0
 21 28  4  0
 24 27  1  0
M  END
$$$$

 Created by Python create_sdf_string function

 28 31  0  0  0  0  0  0  0  0999 V2000
   -1.0054  -13.0622   19.1198 C   0  0  0  0  0  0  0  0  0  0  0  0
    3.1478   -8.5360   28.5161 C   0  0  0  0  0  0  0  0  0  0  0  0
    0.5798   -7.1906   27.9330 C   0  0  0  0  0  0  0  0  0  0  0  0
    0.3978   -5.1561   26.6955 C   0  0  0  0  0  0  0  0  0  0  0  0
    2.3063  -10.0533   30.0125 C   0  0  0  0  0  0  0  0  0  0  0  0
    1.8591   -6.8254   27.4685 N   0  0  0  0  0  0  0  0  0  0  0  0
   -0.2167  -12.1055   18.5568 C   0  0  0  0  0  0  0  0  0  0  0  0
   -2.0661  -10.6994   18.1916 C   0  0  0  0  0  0  0  0  0  0  0  0
    5.2703   -7.5691   27.1123 C   0  0  0  0  0  0  0  0  0  0  0  0
    1.6204   -9.9887   17.2935 C   0  0  0  0  0  0  0  0  0  0  0  0
    1.8931   -7.9265   16.2047 C   0  0  0  0  0  0  0  0  0  0  0  0
    2.4396   -9.0801   16.7132 C   0  0  0  0  0  0  0  0  0  0  0  0
   -0.2575   -8.6234   16.8582 C   0  0  0  0  0  0  0  0  0  0  0  0
    4.0614   -7.0367   27.0106 N   0  0  0  0  0  0  0  0  0  0  0  0
   -2.9133  -11.6279   18.7578 C   0  0  0  0  0  0  0  0  0  0  0  0
    4.5688  -10.1291   29.5758 C   0  0  0  0  0  0  0  0  0  0  0  0
    2.1008   -9.0410   29.1852 N   0  0  0  0  0  0  0  0  0  0  0  0
    3.4829  -10.5697   30.2091 N   0  0  0  0  0  0  0  0  0  0  0  0
   -0.3363   -6.1172   27.5628 C   0  0  0  0  0  0  0  0  0  0  0  0
    3.0331   -7.4400   27.6362 C   0  0  0  0  0  0  0  0  0  0  0  0
    5.4553   -8.5933   27.9644 C   0  0  0  0  0  0  0  0  0  0  0  0
   -2.3870  -12.8440   19.2512 C   0  0  0  0  0  0  0  0  0  0  0  0
    0.5331   -7.6964   16.2751 C   0  0  0  0  0  0  0  0  0  0  0  0
   -0.6740  -10.8737   18.0482 C   0  0  0  0  0  0  0  0  0  0  0  0
    5.6751  -10.5870   29.7637 O   0  0  0  0  0  0  0  0  0  0  0  0
    1.7612   -5.6483   26.7172 C   0  0  0  0  0  0  0  0  0  0  0  0
    0.2221   -9.8326   17.4055 C   0  0  0  0  0  0  0  0  0  0  0  0
    4.3850   -9.0730   28.6745 C   0  0  0  0  0  0  0  0  0  0  0  0
  1  7  4  0
  1 22  4  0
  2 17  4  0
  2 20  4  0
  2 28  4  0
  3  6  1  0
  3 19  1  0
  4 19  1  0
  4 26  1  0
  5 17  4  0
  5 18  4  0
  6 20  1  0
  6 26  1  0
  7 24  4  0
  8 15  4  0
  8 24  4  0
  9 14  4  0
  9 21  4  0
 10 12  4  0
 10 27  4  0
 11 12  4  0
 11 23  4  0
 13 23  4  0
 13 27  4  0
 14 20  4  0
 15 22  4  0
 16 18  4  0
 16 25  2  0
 16 28  4  0
 21 28  4  0
 24 27  1  0
M  END
$$$$

 Created by Python create_sdf_string function

 28 31  0  0  0  0  0  0  0  0999 V2000
   -1.0054  -13.0622   19.1198 C   0  0  0  0  0  0  0  0  0  0  0  0
    3.1478   -8.5360   28.5161 C   0  0  0  0  0  0  0  0  0  0  0  0
    0.5798   -7.1906   27.9330 C   0  0  0  0  0  0  0  0  0  0  0  0
    0.3978   -5.1561   26.6955 C   0  0  0  0  0  0  0  0  0  0  0  0
    2.3063  -10.0533   30.0125 C   0  0  0  0  0  0  0  0  0  0  0  0
    1.8591   -6.8254   27.4685 N   0  0  0  0  0  0  0  0  0  0  0  0
   -0.2167  -12.1055   18.5568 C   0  0  0  0  0  0  0  0  0  0  0  0
   -2.0661  -10.6994   18.1916 C   0  0  0  0  0  0  0  0  0  0  0  0
    5.2703   -7.5691   27.1123 C   0  0  0  0  0  0  0  0  0  0  0  0
    1.6204   -9.9887   17.2935 C   0  0  0  0  0  0  0  0  0  0  0  0
    1.8931   -7.9265   16.2047 C   0  0  0  0  0  0  0  0  0  0  0  0
    2.4396   -9.0801   16.7132 C   0  0  0  0  0  0  0  0  0  0  0  0
   -0.2575   -8.6234   16.8582 C   0  0  0  0  0  0  0  0  0  0  0  0
    4.0614   -7.0367   27.0106 N   0  0  0  0  0  0  0  0  0  0  0  0
   -2.9133  -11.6279   18.7578 C   0  0  0  0  0  0  0  0  0  0  0  0
    4.5688  -10.1291   29.5758 C   0  0  0  0  0  0  0  0  0  0  0  0
    2.1008   -9.0410   29.1852 N   0  0  0  0  0  0  0  0  0  0  0  0
    3.4829  -10.5697   30.2091 N   0  0  0  0  0  0  0  0  0  0  0  0
   -0.3363   -6.1172   27.5628 C   0  0  0  0  0  0  0  0  0  0  0  0
    3.0331   -7.4400   27.6362 C   0  0  0  0  0  0  0  0  0  0  0  0
    5.4553   -8.5933   27.9644 C   0  0  0  0  0  0  0  0  0  0  0  0
   -2.3870  -12.8440   19.2512 C   0  0  0  0  0  0  0  0  0  0  0  0
    0.5331   -7.6964   16.2751 C   0  0  0  0  0  0  0  0  0  0  0  0
   -0.6740  -10.8737   18.0482 C   0  0  0  0  0  0  0  0  0  0  0  0
    5.6751  -10.5870   29.7637 O   0  0  0  0  0  0  0  0  0  0  0  0
    1.7612   -5.6483   26.7172 C   0  0  0  0  0  0  0  0  0  0  0  0
    0.2221   -9.8326   17.4055 C   0  0  0  0  0  0  0  0  0  0  0  0
    4.3850   -9.0730   28.6745 C   0  0  0  0  0  0  0  0  0  0  0  0
  1  7  4  0
  1 22  4  0
  2 17  4  0
  2 20  4  0
  2 28  4  0
  3  6  1  0
  3 19  1  0
  4 19  1  0
  4 26  1  0
  5 17  4  0
  5 18  4  0
  6 20  1  0
  6 26  1  0
  7 24  4  0
  8 15  4  0
  8 24  4  0
  9 14  4  0
  9 21  4  0
 10 12  4  0
 10 27  4  0
 11 12  4  0
 11 23  4  0
 13 23  4  0
 13 27  4  0
 14 20  4  0
 15 22  4  0
 16 18  4  0
 16 25  2  0
 16 28  4  0
 21 28  4  0
 24 27  1  0
M  END
$$$$

 Created by Python create_sdf_string function

 28 31  0  0  0  0  0  0  0  0999 V2000
   -1.0054  -13.0622   19.1198 C   0  0  0  0  0  0  0  0  0  0  0  0
    3.1478   -8.5360   28.5161 C   0  0  0  0  0  0  0  0  0  0  0  0
    0.5798   -7.1906   27.9330 C   0  0  0  0  0  0  0  0  0  0  0  0
    0.3978   -5.1561   26.6955 C   0  0  0  0  0  0  0  0  0  0  0  0
    2.3063  -10.0533   30.0125 C   0  0  0  0  0  0  0  0  0  0  0  0
    1.8591   -6.8254   27.4685 N   0  0  0  0  0  0  0  0  0  0  0  0
   -0.2167  -12.1055   18.5568 C   0  0  0  0  0  0  0  0  0  0  0  0
   -2.0661  -10.6994   18.1916 C   0  0  0  0  0  0  0  0  0  0  0  0
    5.2703   -7.5691   27.1123 C   0  0  0  0  0  0  0  0  0  0  0  0
    1.6204   -9.9887   17.2935 C   0  0  0  0  0  0  0  0  0  0  0  0
    1.8931   -7.9265   16.2047 C   0  0  0  0  0  0  0  0  0  0  0  0
    2.4396   -9.0801   16.7132 C   0  0  0  0  0  0  0  0  0  0  0  0
   -0.2575   -8.6234   16.8582 C   0  0  0  0  0  0  0  0  0  0  0  0
    4.0614   -7.0367   27.0106 N   0  0  0  0  0  0  0  0  0  0  0  0
   -2.9133  -11.6279   18.7578 C   0  0  0  0  0  0  0  0  0  0  0  0
    4.5688  -10.1291   29.5758 C   0  0  0  0  0  0  0  0  0  0  0  0
    2.1008   -9.0410   29.1852 N   0  0  0  0  0  0  0  0  0  0  0  0
    3.4829  -10.5697   30.2091 N   0  0  0  0  0  0  0  0  0  0  0  0
   -0.3363   -6.1172   27.5628 C   0  0  0  0  0  0  0  0  0  0  0  0
    3.0331   -7.4400   27.6362 C   0  0  0  0  0  0  0  0  0  0  0  0
    5.4553   -8.5933   27.9644 C   0  0  0  0  0  0  0  0  0  0  0  0
   -2.3870  -12.8440   19.2512 C   0  0  0  0  0  0  0  0  0  0  0  0
    0.5331   -7.6964   16.2751 C   0  0  0  0  0  0  0  0  0  0  0  0
   -0.6740  -10.8737   18.0482 C   0  0  0  0  0  0  0  0  0  0  0  0
    5.6751  -10.5870   29.7637 O   0  0  0  0  0  0  0  0  0  0  0  0
    1.7612   -5.6483   26.7172 C   0  0  0  0  0  0  0  0  0  0  0  0
    0.2221   -9.8326   17.4055 C   0  0  0  0  0  0  0  0  0  0  0  0
    4.3850   -9.0730   28.6745 C   0  0  0  0  0  0  0  0  0  0  0  0
  1  7  4  0
  1 22  4  0
  2 17  4  0
  2 20  4  0
  2 28  4  0
  3  6  1  0
  3 19  1  0
  4 19  1  0
  4 26  1  0
  5 17  4  0
  5 18  4  0
  6 20  1  0
  6 26  1  0
  7 24  4  0
  8 15  4  0
  8 24  4  0
  9 14  4  0
  9 21  4  0
 10 12  4  0
 10 27  4  0
 11 12  4  0
 11 23  4  0
 13 23  4  0
 13 27  4  0
 14 20  4  0
 15 22  4  0
 16 18  4  0
 16 25  2  0
 16 28  4  0
 21 28  4  0
 24 27  1  0
M  END
$$$$

 Created by Python create_sdf_string function

 28 31  0  0  0  0  0  0  0  0999 V2000
   -1.0054  -13.0622   19.1198 C   0  0  0  0  0  0  0  0  0  0  0  0
    3.1478   -8.5360   28.5161 C   0  0  0  0  0  0  0  0  0  0  0  0
    0.5798   -7.1906   27.9330 C   0  0  0  0  0  0  0  0  0  0  0  0
    0.3978   -5.1561   26.6955 C   0  0  0  0  0  0  0  0  0  0  0  0
    2.3063  -10.0533   30.0125 C   0  0  0  0  0  0  0  0  0  0  0  0
    1.8591   -6.8254   27.4685 N   0  0  0  0  0  0  0  0  0  0  0  0
   -0.2167  -12.1055   18.5568 C   0  0  0  0  0  0  0  0  0  0  0  0
   -2.0661  -10.6994   18.1916 C   0  0  0  0  0  0  0  0  0  0  0  0
    5.2703   -7.5691   27.1123 C   0  0  0  0  0  0  0  0  0  0  0  0
    1.6204   -9.9887   17.2935 C   0  0  0  0  0  0  0  0  0  0  0  0
    1.8931   -7.9265   16.2047 C   0  0  0  0  0  0  0  0  0  0  0  0
    2.4396   -9.0801   16.7132 C   0  0  0  0  0  0  0  0  0  0  0  0
   -0.2575   -8.6234   16.8582 C   0  0  0  0  0  0  0  0  0  0  0  0
    4.0614   -7.0367   27.0106 N   0  0  0  0  0  0  0  0  0  0  0  0
   -2.9133  -11.6279   18.7578 C   0  0  0  0  0  0  0  0  0  0  0  0
    4.5688  -10.1291   29.5758 C   0  0  0  0  0  0  0  0  0  0  0  0
    2.1008   -9.0410   29.1852 N   0  0  0  0  0  0  0  0  0  0  0  0
    3.4829  -10.5697   30.2091 N   0  0  0  0  0  0  0  0  0  0  0  0
   -0.3363   -6.1172   27.5628 C   0  0  0  0  0  0  0  0  0  0  0  0
    3.0331   -7.4400   27.6362 C   0  0  0  0  0  0  0  0  0  0  0  0
    5.4553   -8.5933   27.9644 C   0  0  0  0  0  0  0  0  0  0  0  0
   -2.3870  -12.8440   19.2512 C   0  0  0  0  0  0  0  0  0  0  0  0
    0.5331   -7.6964   16.2751 C   0  0  0  0  0  0  0  0  0  0  0  0
   -0.6740  -10.8737   18.0482 C   0  0  0  0  0  0  0  0  0  0  0  0
    5.6751  -10.5870   29.7637 O   0  0  0  0  0  0  0  0  0  0  0  0
    1.7612   -5.6483   26.7172 C   0  0  0  0  0  0  0  0  0  0  0  0
    0.2221   -9.8326   17.4055 C   0  0  0  0  0  0  0  0  0  0  0  0
    4.3850   -9.0730   28.6745 C   0  0  0  0  0  0  0  0  0  0  0  0
  1  7  4  0
  1 22  4  0
  2 17  4  0
  2 20  4  0
  2 28  4  0
  3  6  1  0
  3 19  1  0
  4 19  1  0
  4 26  1  0
  5 17  4  0
  5 18  4  0
  6 20  1  0
  6 26  1  0
  7 24  4  0
  8 15  4  0
  8 24  4  0
  9 14  4  0
  9 21  4  0
 10 12  4  0
 10 27  4  0
 11 12  4  0
 11 23  4  0
 13 23  4  0
 13 27  4  0
 14 20  4  0
 15 22  4  0
 16 18  4  0
 16 25  2  0
 16 28  4  0
 21 28  4  0
 24 27  1  0
M  END
$$$$

 Created by Python create_sdf_string function

 28 31  0  0  0  0  0  0  0  0999 V2000
   -1.0054  -13.0622   19.1198 C   0  0  0  0  0  0  0  0  0  0  0  0
    3.1478   -8.5360   28.5161 C   0  0  0  0  0  0  0  0  0  0  0  0
    0.5798   -7.1906   27.9330 C   0  0  0  0  0  0  0  0  0  0  0  0
    0.3978   -5.1561   26.6955 C   0  0  0  0  0  0  0  0  0  0  0  0
    2.3063  -10.0533   30.0125 C   0  0  0  0  0  0  0  0  0  0  0  0
    1.8591   -6.8254   27.4685 N   0  0  0  0  0  0  0  0  0  0  0  0
   -0.2167  -12.1055   18.5568 C   0  0  0  0  0  0  0  0  0  0  0  0
   -2.0661  -10.6994   18.1916 C   0  0  0  0  0  0  0  0  0  0  0  0
    5.2703   -7.5691   27.1123 C   0  0  0  0  0  0  0  0  0  0  0  0
    1.6204   -9.9887   17.2935 C   0  0  0  0  0  0  0  0  0  0  0  0
    1.8931   -7.9265   16.2047 C   0  0  0  0  0  0  0  0  0  0  0  0
    2.4396   -9.0801   16.7132 C   0  0  0  0  0  0  0  0  0  0  0  0
   -0.2575   -8.6234   16.8582 C   0  0  0  0  0  0  0  0  0  0  0  0
    4.0614   -7.0367   27.0106 N   0  0  0  0  0  0  0  0  0  0  0  0
   -2.9133  -11.6279   18.7578 C   0  0  0  0  0  0  0  0  0  0  0  0
    4.5688  -10.1291   29.5758 C   0  0  0  0  0  0  0  0  0  0  0  0
    2.1008   -9.0410   29.1852 N   0  0  0  0  0  0  0  0  0  0  0  0
    3.4829  -10.5697   30.2091 N   0  0  0  0  0  0  0  0  0  0  0  0
   -0.3363   -6.1172   27.5628 C   0  0  0  0  0  0  0  0  0  0  0  0
    3.0331   -7.4400   27.6362 C   0  0  0  0  0  0  0  0  0  0  0  0
    5.4553   -8.5933   27.9644 C   0  0  0  0  0  0  0  0  0  0  0  0
   -2.3870  -12.8440   19.2512 C   0  0  0  0  0  0  0  0  0  0  0  0
    0.5331   -7.6964   16.2751 C   0  0  0  0  0  0  0  0  0  0  0  0
   -0.6740  -10.8737   18.0482 C   0  0  0  0  0  0  0  0  0  0  0  0
    5.6751  -10.5870   29.7637 O   0  0  0  0  0  0  0  0  0  0  0  0
    1.7612   -5.6483   26.7172 C   0  0  0  0  0  0  0  0  0  0  0  0
    0.2221   -9.8326   17.4055 C   0  0  0  0  0  0  0  0  0  0  0  0
    4.3850   -9.0730   28.6745 C   0  0  0  0  0  0  0  0  0  0  0  0
  1  7  4  0
  1 22  4  0
  2 17  4  0
  2 20  4  0
  2 28  4  0
  3  6  1  0
  3 19  1  0
  4 19  1  0
  4 26  1  0
  5 17  4  0
  5 18  4  0
  6 20  1  0
  6 26  1  0
  7 24  4  0
  8 15  4  0
  8 24  4  0
  9 14  4  0
  9 21  4  0
 10 12  4  0
 10 27  4  0
 11 12  4  0
 11 23  4  0
 13 23  4  0
 13 27  4  0
 14 20  4  0
 15 22  4  0
 16 18  4  0
 16 25  2  0
 16 28  4  0
 21 28  4  0
 24 27  1  0
M  END
$$$$

 Created by Python create_sdf_string function

 28 31  0  0  0  0  0  0  0  0999 V2000
   -1.0054  -13.0622   19.1198 C   0  0  0  0  0  0  0  0  0  0  0  0
    3.1478   -8.5360   28.5161 C   0  0  0  0  0  0  0  0  0  0  0  0
    0.5798   -7.1906   27.9330 C   0  0  0  0  0  0  0  0  0  0  0  0
    0.3978   -5.1561   26.6955 C   0  0  0  0  0  0  0  0  0  0  0  0
    2.3063  -10.0533   30.0125 C   0  0  0  0  0  0  0  0  0  0  0  0
    1.8591   -6.8254   27.4685 N   0  0  0  0  0  0  0  0  0  0  0  0
   -0.2167  -12.1055   18.5568 C   0  0  0  0  0  0  0  0  0  0  0  0
   -2.0661  -10.6994   18.1916 C   0  0  0  0  0  0  0  0  0  0  0  0
    5.2703   -7.5691   27.1123 C   0  0  0  0  0  0  0  0  0  0  0  0
    1.6204   -9.9887   17.2935 C   0  0  0  0  0  0  0  0  0  0  0  0
    1.8931   -7.9265   16.2047 C   0  0  0  0  0  0  0  0  0  0  0  0
    2.4396   -9.0801   16.7132 C   0  0  0  0  0  0  0  0  0  0  0  0
   -0.2575   -8.6234   16.8582 C   0  0  0  0  0  0  0  0  0  0  0  0
    4.0614   -7.0367   27.0106 N   0  0  0  0  0  0  0  0  0  0  0  0
   -2.9133  -11.6279   18.7578 C   0  0  0  0  0  0  0  0  0  0  0  0
    4.5688  -10.1291   29.5758 C   0  0  0  0  0  0  0  0  0  0  0  0
    2.1008   -9.0410   29.1852 N   0  0  0  0  0  0  0  0  0  0  0  0
    3.4829  -10.5697   30.2091 N   0  0  0  0  0  0  0  0  0  0  0  0
   -0.3363   -6.1172   27.5628 C   0  0  0  0  0  0  0  0  0  0  0  0
    3.0331   -7.4400   27.6362 C   0  0  0  0  0  0  0  0  0  0  0  0
    5.4553   -8.5933   27.9644 C   0  0  0  0  0  0  0  0  0  0  0  0
   -2.3870  -12.8440   19.2512 C   0  0  0  0  0  0  0  0  0  0  0  0
    0.5331   -7.6964   16.2751 C   0  0  0  0  0  0  0  0  0  0  0  0
   -0.6740  -10.8737   18.0482 C   0  0  0  0  0  0  0  0  0  0  0  0
    5.6751  -10.5870   29.7637 O   0  0  0  0  0  0  0  0  0  0  0  0
    1.7612   -5.6483   26.7172 C   0  0  0  0  0  0  0  0  0  0  0  0
    0.2221   -9.8326   17.4055 C   0  0  0  0  0  0  0  0  0  0  0  0
    4.3850   -9.0730   28.6745 C   0  0  0  0  0  0  0  0  0  0  0  0
  1  7  4  0
  1 22  4  0
  2 17  4  0
  2 20  4  0
  2 28  4  0
  3  6  1  0
  3 19  1  0
  4 19  1  0
  4 26  1  0
  5 17  4  0
  5 18  4  0
  6 20  1  0
  6 26  1  0
  7 24  4  0
  8 15  4  0
  8 24  4  0
  9 14  4  0
  9 21  4  0
 10 12  4  0
 10 27  4  0
 11 12  4  0
 11 23  4  0
 13 23  4  0
 13 27  4  0
 14 20  4  0
 15 22  4  0
 16 18  4  0
 16 25  2  0
 16 28  4  0
 21 28  4  0
 24 27  1  0
M  END
$$$$

 Created by Python create_sdf_string function

 28 31  0  0  0  0  0  0  0  0999 V2000
   -1.0054  -13.0622   19.1198 C   0  0  0  0  0  0  0  0  0  0  0  0
    3.1478   -8.5360   28.5161 C   0  0  0  0  0  0  0  0  0  0  0  0
    0.5798   -7.1906   27.9330 C   0  0  0  0  0  0  0  0  0  0  0  0
    0.3978   -5.1561   26.6955 C   0  0  0  0  0  0  0  0  0  0  0  0
    2.3063  -10.0533   30.0125 C   0  0  0  0  0  0  0  0  0  0  0  0
    1.8591   -6.8254   27.4685 N   0  0  0  0  0  0  0  0  0  0  0  0
   -0.2167  -12.1055   18.5568 C   0  0  0  0  0  0  0  0  0  0  0  0
   -2.0661  -10.6994   18.1916 C   0  0  0  0  0  0  0  0  0  0  0  0
    5.2703   -7.5691   27.1123 C   0  0  0  0  0  0  0  0  0  0  0  0
    1.6204   -9.9887   17.2935 C   0  0  0  0  0  0  0  0  0  0  0  0
    1.8931   -7.9265   16.2047 C   0  0  0  0  0  0  0  0  0  0  0  0
    2.4396   -9.0801   16.7132 C   0  0  0  0  0  0  0  0  0  0  0  0
   -0.2575   -8.6234   16.8582 C   0  0  0  0  0  0  0  0  0  0  0  0
    4.0614   -7.0367   27.0106 N   0  0  0  0  0  0  0  0  0  0  0  0
   -2.9133  -11.6279   18.7578 C   0  0  0  0  0  0  0  0  0  0  0  0
    4.5688  -10.1291   29.5758 C   0  0  0  0  0  0  0  0  0  0  0  0
    2.1008   -9.0410   29.1852 N   0  0  0  0  0  0  0  0  0  0  0  0
    3.4829  -10.5697   30.2091 N   0  0  0  0  0  0  0  0  0  0  0  0
   -0.3363   -6.1172   27.5628 C   0  0  0  0  0  0  0  0  0  0  0  0
    3.0331   -7.4400   27.6362 C   0  0  0  0  0  0  0  0  0  0  0  0
    5.4553   -8.5933   27.9644 C   0  0  0  0  0  0  0  0  0  0  0  0
   -2.3870  -12.8440   19.2512 C   0  0  0  0  0  0  0  0  0  0  0  0
    0.5331   -7.6964   16.2751 C   0  0  0  0  0  0  0  0  0  0  0  0
   -0.6740  -10.8737   18.0482 C   0  0  0  0  0  0  0  0  0  0  0  0
    5.6751  -10.5870   29.7637 O   0  0  0  0  0  0  0  0  0  0  0  0
    1.7612   -5.6483   26.7172 C   0  0  0  0  0  0  0  0  0  0  0  0
    0.2221   -9.8326   17.4055 C   0  0  0  0  0  0  0  0  0  0  0  0
    4.3850   -9.0730   28.6745 C   0  0  0  0  0  0  0  0  0  0  0  0
  1  7  4  0
  1 22  4  0
  2 17  4  0
  2 20  4  0
  2 28  4  0
  3  6  1  0
  3 19  1  0
  4 19  1  0
  4 26  1  0
  5 17  4  0
  5 18  4  0
  6 20  1  0
  6 26  1  0
  7 24  4  0
  8 15  4  0
  8 24  4  0
  9 14  4  0
  9 21  4  0
 10 12  4  0
 10 27  4  0
 11 12  4  0
 11 23  4  0
 13 23  4  0
 13 27  4  0
 14 20  4  0
 15 22  4  0
 16 18  4  0
 16 25  2  0
 16 28  4  0
 21 28  4  0
 24 27  1  0
M  END
$$$$

 Created by Python create_sdf_string function

 28 31  0  0  0  0  0  0  0  0999 V2000
   -1.0054  -13.0622   19.1198 C   0  0  0  0  0  0  0  0  0  0  0  0
    3.1478   -8.5360   28.5161 C   0  0  0  0  0  0  0  0  0  0  0  0
    0.5798   -7.1906   27.9330 C   0  0  0  0  0  0  0  0  0  0  0  0
    0.3978   -5.1561   26.6955 C   0  0  0  0  0  0  0  0  0  0  0  0
    2.3063  -10.0533   30.0125 C   0  0  0  0  0  0  0  0  0  0  0  0
    1.8591   -6.8254   27.4685 N   0  0  0  0  0  0  0  0  0  0  0  0
   -0.2167  -12.1055   18.5568 C   0  0  0  0  0  0  0  0  0  0  0  0
   -2.0661  -10.6994   18.1916 C   0  0  0  0  0  0  0  0  0  0  0  0
    5.2703   -7.5691   27.1123 C   0  0  0  0  0  0  0  0  0  0  0  0
    1.6204   -9.9887   17.2935 C   0  0  0  0  0  0  0  0  0  0  0  0
    1.8931   -7.9265   16.2047 C   0  0  0  0  0  0  0  0  0  0  0  0
    2.4396   -9.0801   16.7132 C   0  0  0  0  0  0  0  0  0  0  0  0
   -0.2575   -8.6234   16.8582 C   0  0  0  0  0  0  0  0  0  0  0  0
    4.0614   -7.0367   27.0106 N   0  0  0  0  0  0  0  0  0  0  0  0
   -2.9133  -11.6279   18.7578 C   0  0  0  0  0  0  0  0  0  0  0  0
    4.5688  -10.1291   29.5758 C   0  0  0  0  0  0  0  0  0  0  0  0
    2.1008   -9.0410   29.1852 N   0  0  0  0  0  0  0  0  0  0  0  0
    3.4829  -10.5697   30.2091 N   0  0  0  0  0  0  0  0  0  0  0  0
   -0.3363   -6.1172   27.5628 C   0  0  0  0  0  0  0  0  0  0  0  0
    3.0331   -7.4400   27.6362 C   0  0  0  0  0  0  0  0  0  0  0  0
    5.4553   -8.5933   27.9644 C   0  0  0  0  0  0  0  0  0  0  0  0
   -2.3870  -12.8440   19.2512 C   0  0  0  0  0  0  0  0  0  0  0  0
    0.5331   -7.6964   16.2751 C   0  0  0  0  0  0  0  0  0  0  0  0
   -0.6740  -10.8737   18.0482 C   0  0  0  0  0  0  0  0  0  0  0  0
    5.6751  -10.5870   29.7637 O   0  0  0  0  0  0  0  0  0  0  0  0
    1.7612   -5.6483   26.7172 C   0  0  0  0  0  0  0  0  0  0  0  0
    0.2221   -9.8326   17.4055 C   0  0  0  0  0  0  0  0  0  0  0  0
    4.3850   -9.0730   28.6745 C   0  0  0  0  0  0  0  0  0  0  0  0
  1  7  4  0
  1 22  4  0
  2 17  4  0
  2 20  4  0
  2 28  4  0
  3  6  1  0
  3 19  1  0
  4 19  1  0
  4 26  1  0
  5 17  4  0
  5 18  4  0
  6 20  1  0
  6 26  1  0
  7 24  4  0
  8 15  4  0
  8 24  4  0
  9 14  4  0
  9 21  4  0
 10 12  4  0
 10 27  4  0
 11 12  4  0
 11 23  4  0
 13 23  4  0
 13 27  4  0
 14 20  4  0
 15 22  4  0
 16 18  4  0
 16 25  2  0
 16 28  4  0
 21 28  4  0
 24 27  1  0
M  END
$$$$

 Created by Python create_sdf_string function

 28 31  0  0  0  0  0  0  0  0999 V2000
   -1.0054  -13.0622   19.1198 C   0  0  0  0  0  0  0  0  0  0  0  0
    3.1478   -8.5360   28.5161 C   0  0  0  0  0  0  0  0  0  0  0  0
    0.5798   -7.1906   27.9330 C   0  0  0  0  0  0  0  0  0  0  0  0
    0.3978   -5.1561   26.6955 C   0  0  0  0  0  0  0  0  0  0  0  0
    2.3063  -10.0533   30.0125 C   0  0  0  0  0  0  0  0  0  0  0  0
    1.8591   -6.8254   27.4685 N   0  0  0  0  0  0  0  0  0  0  0  0
   -0.2167  -12.1055   18.5568 C   0  0  0  0  0  0  0  0  0  0  0  0
   -2.0661  -10.6994   18.1916 C   0  0  0  0  0  0  0  0  0  0  0  0
    5.2703   -7.5691   27.1123 C   0  0  0  0  0  0  0  0  0  0  0  0
    1.6204   -9.9887   17.2935 C   0  0  0  0  0  0  0  0  0  0  0  0
    1.8931   -7.9265   16.2047 C   0  0  0  0  0  0  0  0  0  0  0  0
    2.4396   -9.0801   16.7132 C   0  0  0  0  0  0  0  0  0  0  0  0
   -0.2575   -8.6234   16.8582 C   0  0  0  0  0  0  0  0  0  0  0  0
    4.0614   -7.0367   27.0106 N   0  0  0  0  0  0  0  0  0  0  0  0
   -2.9133  -11.6279   18.7578 C   0  0  0  0  0  0  0  0  0  0  0  0
    4.5688  -10.1291   29.5758 C   0  0  0  0  0  0  0  0  0  0  0  0
    2.1008   -9.0410   29.1852 N   0  0  0  0  0  0  0  0  0  0  0  0
    3.4829  -10.5697   30.2091 N   0  0  0  0  0  0  0  0  0  0  0  0
   -0.3363   -6.1172   27.5628 C   0  0  0  0  0  0  0  0  0  0  0  0
    3.0331   -7.4400   27.6362 C   0  0  0  0  0  0  0  0  0  0  0  0
    5.4553   -8.5933   27.9644 C   0  0  0  0  0  0  0  0  0  0  0  0
   -2.3870  -12.8440   19.2512 C   0  0  0  0  0  0  0  0  0  0  0  0
    0.5331   -7.6964   16.2751 C   0  0  0  0  0  0  0  0  0  0  0  0
   -0.6740  -10.8737   18.0482 C   0  0  0  0  0  0  0  0  0  0  0  0
    5.6751  -10.5870   29.7637 O   0  0  0  0  0  0  0  0  0  0  0  0
    1.7612   -5.6483   26.7172 C   0  0  0  0  0  0  0  0  0  0  0  0
    0.2221   -9.8326   17.4055 C   0  0  0  0  0  0  0  0  0  0  0  0
    4.3850   -9.0730   28.6745 C   0  0  0  0  0  0  0  0  0  0  0  0
  1  7  4  0
  1 22  4  0
  2 17  4  0
  2 20  4  0
  2 28  4  0
  3  6  1  0
  3 19  1  0
  4 19  1  0
  4 26  1  0
  5 17  4  0
  5 18  4  0
  6 20  1  0
  6 26  1  0
  7 24  4  0
  8 15  4  0
  8 24  4  0
  9 14  4  0
  9 21  4  0
 10 12  4  0
 10 27  4  0
 11 12  4  0
 11 23  4  0
 13 23  4  0
 13 27  4  0
 14 20  4  0
 15 22  4  0
 16 18  4  0
 16 25  2  0
 16 28  4  0
 21 28  4  0
 24 27  1  0
M  END
$$$$

 Created by Python create_sdf_string function

 28 31  0  0  0  0  0  0  0  0999 V2000
   -1.0054  -13.0622   19.1198 C   0  0  0  0  0  0  0  0  0  0  0  0
    3.1478   -8.5360   28.5161 C   0  0  0  0  0  0  0  0  0  0  0  0
    0.5798   -7.1906   27.9330 C   0  0  0  0  0  0  0  0  0  0  0  0
    0.3978   -5.1561   26.6955 C   0  0  0  0  0  0  0  0  0  0  0  0
    2.3063  -10.0533   30.0125 C   0  0  0  0  0  0  0  0  0  0  0  0
    1.8591   -6.8254   27.4685 N   0  0  0  0  0  0  0  0  0  0  0  0
   -0.2167  -12.1055   18.5568 C   0  0  0  0  0  0  0  0  0  0  0  0
   -2.0661  -10.6994   18.1916 C   0  0  0  0  0  0  0  0  0  0  0  0
    5.2703   -7.5691   27.1123 C   0  0  0  0  0  0  0  0  0  0  0  0
    1.6204   -9.9887   17.2935 C   0  0  0  0  0  0  0  0  0  0  0  0
    1.8931   -7.9265   16.2047 C   0  0  0  0  0  0  0  0  0  0  0  0
    2.4396   -9.0801   16.7132 C   0  0  0  0  0  0  0  0  0  0  0  0
   -0.2575   -8.6234   16.8582 C   0  0  0  0  0  0  0  0  0  0  0  0
    4.0614   -7.0367   27.0106 N   0  0  0  0  0  0  0  0  0  0  0  0
   -2.9133  -11.6279   18.7578 C   0  0  0  0  0  0  0  0  0  0  0  0
    4.5688  -10.1291   29.5758 C   0  0  0  0  0  0  0  0  0  0  0  0
    2.1008   -9.0410   29.1852 N   0  0  0  0  0  0  0  0  0  0  0  0
    3.4829  -10.5697   30.2091 N   0  0  0  0  0  0  0  0  0  0  0  0
   -0.3363   -6.1172   27.5628 C   0  0  0  0  0  0  0  0  0  0  0  0
    3.0331   -7.4400   27.6362 C   0  0  0  0  0  0  0  0  0  0  0  0
    5.4553   -8.5933   27.9644 C   0  0  0  0  0  0  0  0  0  0  0  0
   -2.3870  -12.8440   19.2512 C   0  0  0  0  0  0  0  0  0  0  0  0
    0.5331   -7.6964   16.2751 C   0  0  0  0  0  0  0  0  0  0  0  0
   -0.6740  -10.8737   18.0482 C   0  0  0  0  0  0  0  0  0  0  0  0
    5.6751  -10.5870   29.7637 O   0  0  0  0  0  0  0  0  0  0  0  0
    1.7612   -5.6483   26.7172 C   0  0  0  0  0  0  0  0  0  0  0  0
    0.2221   -9.8326   17.4055 C   0  0  0  0  0  0  0  0  0  0  0  0
    4.3850   -9.0730   28.6745 C   0  0  0  0  0  0  0  0  0  0  0  0
  1  7  4  0
  1 22  4  0
  2 17  4  0
  2 20  4  0
  2 28  4  0
  3  6  1  0
  3 19  1  0
  4 19  1  0
  4 26  1  0
  5 17  4  0
  5 18  4  0
  6 20  1  0
  6 26  1  0
  7 24  4  0
  8 15  4  0
  8 24  4  0
  9 14  4  0
  9 21  4  0
 10 12  4  0
 10 27  4  0
 11 12  4  0
 11 23  4  0
 13 23  4  0
 13 27  4  0
 14 20  4  0
 15 22  4  0
 16 18  4  0
 16 25  2  0
 16 28  4  0
 21 28  4  0
 24 27  1  0
M  END
$$$$

 Created by Python create_sdf_string function

 28 31  0  0  0  0  0  0  0  0999 V2000
   -1.0054  -13.0622   19.1198 C   0  0  0  0  0  0  0  0  0  0  0  0
    3.1478   -8.5360   28.5161 C   0  0  0  0  0  0  0  0  0  0  0  0
    0.5798   -7.1906   27.9330 C   0  0  0  0  0  0  0  0  0  0  0  0
    0.3978   -5.1561   26.6955 C   0  0  0  0  0  0  0  0  0  0  0  0
    2.3063  -10.0533   30.0125 C   0  0  0  0  0  0  0  0  0  0  0  0
    1.8591   -6.8254   27.4685 N   0  0  0  0  0  0  0  0  0  0  0  0
   -0.2167  -12.1055   18.5568 C   0  0  0  0  0  0  0  0  0  0  0  0
   -2.0661  -10.6994   18.1916 C   0  0  0  0  0  0  0  0  0  0  0  0
    5.2703   -7.5691   27.1123 C   0  0  0  0  0  0  0  0  0  0  0  0
    1.6204   -9.9887   17.2935 C   0  0  0  0  0  0  0  0  0  0  0  0
    1.8931   -7.9265   16.2047 C   0  0  0  0  0  0  0  0  0  0  0  0
    2.4396   -9.0801   16.7132 C   0  0  0  0  0  0  0  0  0  0  0  0
   -0.2575   -8.6234   16.8582 C   0  0  0  0  0  0  0  0  0  0  0  0
    4.0614   -7.0367   27.0106 N   0  0  0  0  0  0  0  0  0  0  0  0
   -2.9133  -11.6279   18.7578 C   0  0  0  0  0  0  0  0  0  0  0  0
    4.5688  -10.1291   29.5758 C   0  0  0  0  0  0  0  0  0  0  0  0
    2.1008   -9.0410   29.1852 N   0  0  0  0  0  0  0  0  0  0  0  0
    3.4829  -10.5697   30.2091 N   0  0  0  0  0  0  0  0  0  0  0  0
   -0.3363   -6.1172   27.5628 C   0  0  0  0  0  0  0  0  0  0  0  0
    3.0331   -7.4400   27.6362 C   0  0  0  0  0  0  0  0  0  0  0  0
    5.4553   -8.5933   27.9644 C   0  0  0  0  0  0  0  0  0  0  0  0
   -2.3870  -12.8440   19.2512 C   0  0  0  0  0  0  0  0  0  0  0  0
    0.5331   -7.6964   16.2751 C   0  0  0  0  0  0  0  0  0  0  0  0
   -0.6740  -10.8737   18.0482 C   0  0  0  0  0  0  0  0  0  0  0  0
    5.6751  -10.5870   29.7637 O   0  0  0  0  0  0  0  0  0  0  0  0
    1.7612   -5.6483   26.7172 C   0  0  0  0  0  0  0  0  0  0  0  0
    0.2221   -9.8326   17.4055 C   0  0  0  0  0  0  0  0  0  0  0  0
    4.3850   -9.0730   28.6745 C   0  0  0  0  0  0  0  0  0  0  0  0
  1  7  4  0
  1 22  4  0
  2 17  4  0
  2 20  4  0
  2 28  4  0
  3  6  1  0
  3 19  1  0
  4 19  1  0
  4 26  1  0
  5 17  4  0
  5 18  4  0
  6 20  1  0
  6 26  1  0
  7 24  4  0
  8 15  4  0
  8 24  4  0
  9 14  4  0
  9 21  4  0
 10 12  4  0
 10 27  4  0
 11 12  4  0
 11 23  4  0
 13 23  4  0
 13 27  4  0
 14 20  4  0
 15 22  4  0
 16 18  4  0
 16 25  2  0
 16 28  4  0
 21 28  4  0
 24 27  1  0
M  END
$$$$

 Created by Python create_sdf_string function

 28 31  0  0  0  0  0  0  0  0999 V2000
   -1.0054  -13.0622   19.1198 C   0  0  0  0  0  0  0  0  0  0  0  0
    3.1478   -8.5360   28.5161 C   0  0  0  0  0  0  0  0  0  0  0  0
    0.5798   -7.1906   27.9330 C   0  0  0  0  0  0  0  0  0  0  0  0
    0.3978   -5.1561   26.6955 C   0  0  0  0  0  0  0  0  0  0  0  0
    2.3063  -10.0533   30.0125 C   0  0  0  0  0  0  0  0  0  0  0  0
    1.8591   -6.8254   27.4685 N   0  0  0  0  0  0  0  0  0  0  0  0
   -0.2167  -12.1055   18.5568 C   0  0  0  0  0  0  0  0  0  0  0  0
   -2.0661  -10.6994   18.1916 C   0  0  0  0  0  0  0  0  0  0  0  0
    5.2703   -7.5691   27.1123 C   0  0  0  0  0  0  0  0  0  0  0  0
    1.6204   -9.9887   17.2935 C   0  0  0  0  0  0  0  0  0  0  0  0
    1.8931   -7.9265   16.2047 C   0  0  0  0  0  0  0  0  0  0  0  0
    2.4396   -9.0801   16.7132 C   0  0  0  0  0  0  0  0  0  0  0  0
   -0.2575   -8.6234   16.8582 C   0  0  0  0  0  0  0  0  0  0  0  0
    4.0614   -7.0367   27.0106 N   0  0  0  0  0  0  0  0  0  0  0  0
   -2.9133  -11.6279   18.7578 C   0  0  0  0  0  0  0  0  0  0  0  0
    4.5688  -10.1291   29.5758 C   0  0  0  0  0  0  0  0  0  0  0  0
    2.1008   -9.0410   29.1852 N   0  0  0  0  0  0  0  0  0  0  0  0
    3.4829  -10.5697   30.2091 N   0  0  0  0  0  0  0  0  0  0  0  0
   -0.3363   -6.1172   27.5628 C   0  0  0  0  0  0  0  0  0  0  0  0
    3.0331   -7.4400   27.6362 C   0  0  0  0  0  0  0  0  0  0  0  0
    5.4553   -8.5933   27.9644 C   0  0  0  0  0  0  0  0  0  0  0  0
   -2.3870  -12.8440   19.2512 C   0  0  0  0  0  0  0  0  0  0  0  0
    0.5331   -7.6964   16.2751 C   0  0  0  0  0  0  0  0  0  0  0  0
   -0.6740  -10.8737   18.0482 C   0  0  0  0  0  0  0  0  0  0  0  0
    5.6751  -10.5870   29.7637 O   0  0  0  0  0  0  0  0  0  0  0  0
    1.7612   -5.6483   26.7172 C   0  0  0  0  0  0  0  0  0  0  0  0
    0.2221   -9.8326   17.4055 C   0  0  0  0  0  0  0  0  0  0  0  0
    4.3850   -9.0730   28.6745 C   0  0  0  0  0  0  0  0  0  0  0  0
  1  7  4  0
  1 22  4  0
  2 17  4  0
  2 20  4  0
  2 28  4  0
  3  6  1  0
  3 19  1  0
  4 19  1  0
  4 26  1  0
  5 17  4  0
  5 18  4  0
  6 20  1  0
  6 26  1  0
  7 24  4  0
  8 15  4  0
  8 24  4  0
  9 14  4  0
  9 21  4  0
 10 12  4  0
 10 27  4  0
 11 12  4  0
 11 23  4  0
 13 23  4  0
 13 27  4  0
 14 20  4  0
 15 22  4  0
 16 18  4  0
 16 25  2  0
 16 28  4  0
 21 28  4  0
 24 27  1  0
M  END
$$$$

 Created by Python create_sdf_string function

 28 31  0  0  0  0  0  0  0  0999 V2000
   -1.0054  -13.0622   19.1198 C   0  0  0  0  0  0  0  0  0  0  0  0
    3.1478   -8.5360   28.5161 C   0  0  0  0  0  0  0  0  0  0  0  0
    0.5798   -7.1906   27.9330 C   0  0  0  0  0  0  0  0  0  0  0  0
    0.3978   -5.1561   26.6955 C   0  0  0  0  0  0  0  0  0  0  0  0
    2.3063  -10.0533   30.0125 C   0  0  0  0  0  0  0  0  0  0  0  0
    1.8591   -6.8254   27.4685 N   0  0  0  0  0  0  0  0  0  0  0  0
   -0.2167  -12.1055   18.5568 C   0  0  0  0  0  0  0  0  0  0  0  0
   -2.0661  -10.6994   18.1916 C   0  0  0  0  0  0  0  0  0  0  0  0
    5.2703   -7.5691   27.1123 C   0  0  0  0  0  0  0  0  0  0  0  0
    1.6204   -9.9887   17.2935 C   0  0  0  0  0  0  0  0  0  0  0  0
    1.8931   -7.9265   16.2047 C   0  0  0  0  0  0  0  0  0  0  0  0
    2.4396   -9.0801   16.7132 C   0  0  0  0  0  0  0  0  0  0  0  0
   -0.2575   -8.6234   16.8582 C   0  0  0  0  0  0  0  0  0  0  0  0
    4.0614   -7.0367   27.0106 N   0  0  0  0  0  0  0  0  0  0  0  0
   -2.9133  -11.6279   18.7578 C   0  0  0  0  0  0  0  0  0  0  0  0
    4.5688  -10.1291   29.5758 C   0  0  0  0  0  0  0  0  0  0  0  0
    2.1008   -9.0410   29.1852 N   0  0  0  0  0  0  0  0  0  0  0  0
    3.4829  -10.5697   30.2091 N   0  0  0  0  0  0  0  0  0  0  0  0
   -0.3363   -6.1172   27.5628 C   0  0  0  0  0  0  0  0  0  0  0  0
    3.0331   -7.4400   27.6362 C   0  0  0  0  0  0  0  0  0  0  0  0
    5.4553   -8.5933   27.9644 C   0  0  0  0  0  0  0  0  0  0  0  0
   -2.3870  -12.8440   19.2512 C   0  0  0  0  0  0  0  0  0  0  0  0
    0.5331   -7.6964   16.2751 C   0  0  0  0  0  0  0  0  0  0  0  0
   -0.6740  -10.8737   18.0482 C   0  0  0  0  0  0  0  0  0  0  0  0
    5.6751  -10.5870   29.7637 O   0  0  0  0  0  0  0  0  0  0  0  0
    1.7612   -5.6483   26.7172 C   0  0  0  0  0  0  0  0  0  0  0  0
    0.2221   -9.8326   17.4055 C   0  0  0  0  0  0  0  0  0  0  0  0
    4.3850   -9.0730   28.6745 C   0  0  0  0  0  0  0  0  0  0  0  0
  1  7  4  0
  1 22  4  0
  2 17  4  0
  2 20  4  0
  2 28  4  0
  3  6  1  0
  3 19  1  0
  4 19  1  0
  4 26  1  0
  5 17  4  0
  5 18  4  0
  6 20  1  0
  6 26  1  0
  7 24  4  0
  8 15  4  0
  8 24  4  0
  9 14  4  0
  9 21  4  0
 10 12  4  0
 10 27  4  0
 11 12  4  0
 11 23  4  0
 13 23  4  0
 13 27  4  0
 14 20  4  0
 15 22  4  0
 16 18  4  0
 16 25  2  0
 16 28  4  0
 21 28  4  0
 24 27  1  0
M  END
$$$$

 Created by Python create_sdf_string function

 28 31  0  0  0  0  0  0  0  0999 V2000
   -1.0054  -13.0622   19.1198 C   0  0  0  0  0  0  0  0  0  0  0  0
    3.1478   -8.5360   28.5161 C   0  0  0  0  0  0  0  0  0  0  0  0
    0.5798   -7.1906   27.9330 C   0  0  0  0  0  0  0  0  0  0  0  0
    0.3978   -5.1561   26.6955 C   0  0  0  0  0  0  0  0  0  0  0  0
    2.3063  -10.0533   30.0125 C   0  0  0  0  0  0  0  0  0  0  0  0
    1.8591   -6.8254   27.4685 N   0  0  0  0  0  0  0  0  0  0  0  0
   -0.2167  -12.1055   18.5568 C   0  0  0  0  0  0  0  0  0  0  0  0
   -2.0661  -10.6994   18.1916 C   0  0  0  0  0  0  0  0  0  0  0  0
    5.2703   -7.5691   27.1123 C   0  0  0  0  0  0  0  0  0  0  0  0
    1.6204   -9.9887   17.2935 C   0  0  0  0  0  0  0  0  0  0  0  0
    1.8931   -7.9265   16.2047 C   0  0  0  0  0  0  0  0  0  0  0  0
    2.4396   -9.0801   16.7132 C   0  0  0  0  0  0  0  0  0  0  0  0
   -0.2575   -8.6234   16.8582 C   0  0  0  0  0  0  0  0  0  0  0  0
    4.0614   -7.0367   27.0106 N   0  0  0  0  0  0  0  0  0  0  0  0
   -2.9133  -11.6279   18.7578 C   0  0  0  0  0  0  0  0  0  0  0  0
    4.5688  -10.1291   29.5758 C   0  0  0  0  0  0  0  0  0  0  0  0
    2.1008   -9.0410   29.1852 N   0  0  0  0  0  0  0  0  0  0  0  0
    3.4829  -10.5697   30.2091 N   0  0  0  0  0  0  0  0  0  0  0  0
   -0.3363   -6.1172   27.5628 C   0  0  0  0  0  0  0  0  0  0  0  0
    3.0331   -7.4400   27.6362 C   0  0  0  0  0  0  0  0  0  0  0  0
    5.4553   -8.5933   27.9644 C   0  0  0  0  0  0  0  0  0  0  0  0
   -2.3870  -12.8440   19.2512 C   0  0  0  0  0  0  0  0  0  0  0  0
    0.5331   -7.6964   16.2751 C   0  0  0  0  0  0  0  0  0  0  0  0
   -0.6740  -10.8737   18.0482 C   0  0  0  0  0  0  0  0  0  0  0  0
    5.6751  -10.5870   29.7637 O   0  0  0  0  0  0  0  0  0  0  0  0
    1.7612   -5.6483   26.7172 C   0  0  0  0  0  0  0  0  0  0  0  0
    0.2221   -9.8326   17.4055 C   0  0  0  0  0  0  0  0  0  0  0  0
    4.3850   -9.0730   28.6745 C   0  0  0  0  0  0  0  0  0  0  0  0
  1  7  4  0
  1 22  4  0
  2 17  4  0
  2 20  4  0
  2 28  4  0
  3  6  1  0
  3 19  1  0
  4 19  1  0
  4 26  1  0
  5 17  4  0
  5 18  4  0
  6 20  1  0
  6 26  1  0
  7 24  4  0
  8 15  4  0
  8 24  4  0
  9 14  4  0
  9 21  4  0
 10 12  4  0
 10 27  4  0
 11 12  4  0
 11 23  4  0
 13 23  4  0
 13 27  4  0
 14 20  4  0
 15 22  4  0
 16 18  4  0
 16 25  2  0
 16 28  4  0
 21 28  4  0
 24 27  1  0
M  END
$$$$

 Created by Python create_sdf_string function

 28 31  0  0  0  0  0  0  0  0999 V2000
   -1.0054  -13.0622   19.1198 C   0  0  0  0  0  0  0  0  0  0  0  0
    3.1478   -8.5360   28.5161 C   0  0  0  0  0  0  0  0  0  0  0  0
    0.5798   -7.1906   27.9330 C   0  0  0  0  0  0  0  0  0  0  0  0
    0.3978   -5.1561   26.6955 C   0  0  0  0  0  0  0  0  0  0  0  0
    2.3063  -10.0533   30.0125 C   0  0  0  0  0  0  0  0  0  0  0  0
    1.8591   -6.8254   27.4685 N   0  0  0  0  0  0  0  0  0  0  0  0
   -0.2167  -12.1055   18.5568 C   0  0  0  0  0  0  0  0  0  0  0  0
   -2.0661  -10.6994   18.1916 C   0  0  0  0  0  0  0  0  0  0  0  0
    5.2703   -7.5691   27.1123 C   0  0  0  0  0  0  0  0  0  0  0  0
    1.6204   -9.9887   17.2935 C   0  0  0  0  0  0  0  0  0  0  0  0
    1.8931   -7.9265   16.2047 C   0  0  0  0  0  0  0  0  0  0  0  0
    2.4396   -9.0801   16.7132 C   0  0  0  0  0  0  0  0  0  0  0  0
   -0.2575   -8.6234   16.8582 C   0  0  0  0  0  0  0  0  0  0  0  0
    4.0614   -7.0367   27.0106 N   0  0  0  0  0  0  0  0  0  0  0  0
   -2.9133  -11.6279   18.7578 C   0  0  0  0  0  0  0  0  0  0  0  0
    4.5688  -10.1291   29.5758 C   0  0  0  0  0  0  0  0  0  0  0  0
    2.1008   -9.0410   29.1852 N   0  0  0  0  0  0  0  0  0  0  0  0
    3.4829  -10.5697   30.2091 N   0  0  0  0  0  0  0  0  0  0  0  0
   -0.3363   -6.1172   27.5628 C   0  0  0  0  0  0  0  0  0  0  0  0
    3.0331   -7.4400   27.6362 C   0  0  0  0  0  0  0  0  0  0  0  0
    5.4553   -8.5933   27.9644 C   0  0  0  0  0  0  0  0  0  0  0  0
   -2.3870  -12.8440   19.2512 C   0  0  0  0  0  0  0  0  0  0  0  0
    0.5331   -7.6964   16.2751 C   0  0  0  0  0  0  0  0  0  0  0  0
   -0.6740  -10.8737   18.0482 C   0  0  0  0  0  0  0  0  0  0  0  0
    5.6751  -10.5870   29.7637 O   0  0  0  0  0  0  0  0  0  0  0  0
    1.7612   -5.6483   26.7172 C   0  0  0  0  0  0  0  0  0  0  0  0
    0.2221   -9.8326   17.4055 C   0  0  0  0  0  0  0  0  0  0  0  0
    4.3850   -9.0730   28.6745 C   0  0  0  0  0  0  0  0  0  0  0  0
  1  7  4  0
  1 22  4  0
  2 17  4  0
  2 20  4  0
  2 28  4  0
  3  6  1  0
  3 19  1  0
  4 19  1  0
  4 26  1  0
  5 17  4  0
  5 18  4  0
  6 20  1  0
  6 26  1  0
  7 24  4  0
  8 15  4  0
  8 24  4  0
  9 14  4  0
  9 21  4  0
 10 12  4  0
 10 27  4  0
 11 12  4  0
 11 23  4  0
 13 23  4  0
 13 27  4  0
 14 20  4  0
 15 22  4  0
 16 18  4  0
 16 25  2  0
 16 28  4  0
 21 28  4  0
 24 27  1  0
M  END
$$$$

 Created by Python create_sdf_string function

 28 31  0  0  0  0  0  0  0  0999 V2000
   -1.0054  -13.0622   19.1198 C   0  0  0  0  0  0  0  0  0  0  0  0
    3.1478   -8.5360   28.5161 C   0  0  0  0  0  0  0  0  0  0  0  0
    0.5798   -7.1906   27.9330 C   0  0  0  0  0  0  0  0  0  0  0  0
    0.3978   -5.1561   26.6955 C   0  0  0  0  0  0  0  0  0  0  0  0
    2.3063  -10.0533   30.0125 C   0  0  0  0  0  0  0  0  0  0  0  0
    1.8591   -6.8254   27.4685 N   0  0  0  0  0  0  0  0  0  0  0  0
   -0.2167  -12.1055   18.5568 C   0  0  0  0  0  0  0  0  0  0  0  0
   -2.0661  -10.6994   18.1916 C   0  0  0  0  0  0  0  0  0  0  0  0
    5.2703   -7.5691   27.1123 C   0  0  0  0  0  0  0  0  0  0  0  0
    1.6204   -9.9887   17.2935 C   0  0  0  0  0  0  0  0  0  0  0  0
    1.8931   -7.9265   16.2047 C   0  0  0  0  0  0  0  0  0  0  0  0
    2.4396   -9.0801   16.7132 C   0  0  0  0  0  0  0  0  0  0  0  0
   -0.2575   -8.6234   16.8582 C   0  0  0  0  0  0  0  0  0  0  0  0
    4.0614   -7.0367   27.0106 N   0  0  0  0  0  0  0  0  0  0  0  0
   -2.9133  -11.6279   18.7578 C   0  0  0  0  0  0  0  0  0  0  0  0
    4.5688  -10.1291   29.5758 C   0  0  0  0  0  0  0  0  0  0  0  0
    2.1008   -9.0410   29.1852 N   0  0  0  0  0  0  0  0  0  0  0  0
    3.4829  -10.5697   30.2091 N   0  0  0  0  0  0  0  0  0  0  0  0
   -0.3363   -6.1172   27.5628 C   0  0  0  0  0  0  0  0  0  0  0  0
    3.0331   -7.4400   27.6362 C   0  0  0  0  0  0  0  0  0  0  0  0
    5.4553   -8.5933   27.9644 C   0  0  0  0  0  0  0  0  0  0  0  0
   -2.3870  -12.8440   19.2512 C   0  0  0  0  0  0  0  0  0  0  0  0
    0.5331   -7.6964   16.2751 C   0  0  0  0  0  0  0  0  0  0  0  0
   -0.6740  -10.8737   18.0482 C   0  0  0  0  0  0  0  0  0  0  0  0
    5.6751  -10.5870   29.7637 O   0  0  0  0  0  0  0  0  0  0  0  0
    1.7612   -5.6483   26.7172 C   0  0  0  0  0  0  0  0  0  0  0  0
    0.2221   -9.8326   17.4055 C   0  0  0  0  0  0  0  0  0  0  0  0
    4.3850   -9.0730   28.6745 C   0  0  0  0  0  0  0  0  0  0  0  0
  1  7  4  0
  1 22  4  0
  2 17  4  0
  2 20  4  0
  2 28  4  0
  3  6  1  0
  3 19  1  0
  4 19  1  0
  4 26  1  0
  5 17  4  0
  5 18  4  0
  6 20  1  0
  6 26  1  0
  7 24  4  0
  8 15  4  0
  8 24  4  0
  9 14  4  0
  9 21  4  0
 10 12  4  0
 10 27  4  0
 11 12  4  0
 11 23  4  0
 13 23  4  0
 13 27  4  0
 14 20  4  0
 15 22  4  0
 16 18  4  0
 16 25  2  0
 16 28  4  0
 21 28  4  0
 24 27  1  0
M  END
$$$$

 Created by Python create_sdf_string function

 28 31  0  0  0  0  0  0  0  0999 V2000
   -1.0054  -13.0622   19.1198 C   0  0  0  0  0  0  0  0  0  0  0  0
    3.1478   -8.5360   28.5161 C   0  0  0  0  0  0  0  0  0  0  0  0
    0.5798   -7.1906   27.9330 C   0  0  0  0  0  0  0  0  0  0  0  0
    0.3978   -5.1561   26.6955 C   0  0  0  0  0  0  0  0  0  0  0  0
    2.3063  -10.0533   30.0125 C   0  0  0  0  0  0  0  0  0  0  0  0
    1.8591   -6.8254   27.4685 N   0  0  0  0  0  0  0  0  0  0  0  0
   -0.2167  -12.1055   18.5568 C   0  0  0  0  0  0  0  0  0  0  0  0
   -2.0661  -10.6994   18.1916 C   0  0  0  0  0  0  0  0  0  0  0  0
    5.2703   -7.5691   27.1123 C   0  0  0  0  0  0  0  0  0  0  0  0
    1.6204   -9.9887   17.2935 C   0  0  0  0  0  0  0  0  0  0  0  0
    1.8931   -7.9265   16.2047 C   0  0  0  0  0  0  0  0  0  0  0  0
    2.4396   -9.0801   16.7132 C   0  0  0  0  0  0  0  0  0  0  0  0
   -0.2575   -8.6234   16.8582 C   0  0  0  0  0  0  0  0  0  0  0  0
    4.0614   -7.0367   27.0106 N   0  0  0  0  0  0  0  0  0  0  0  0
   -2.9133  -11.6279   18.7578 C   0  0  0  0  0  0  0  0  0  0  0  0
    4.5688  -10.1291   29.5758 C   0  0  0  0  0  0  0  0  0  0  0  0
    2.1008   -9.0410   29.1852 N   0  0  0  0  0  0  0  0  0  0  0  0
    3.4829  -10.5697   30.2091 N   0  0  0  0  0  0  0  0  0  0  0  0
   -0.3363   -6.1172   27.5628 C   0  0  0  0  0  0  0  0  0  0  0  0
    3.0331   -7.4400   27.6362 C   0  0  0  0  0  0  0  0  0  0  0  0
    5.4553   -8.5933   27.9644 C   0  0  0  0  0  0  0  0  0  0  0  0
   -2.3870  -12.8440   19.2512 C   0  0  0  0  0  0  0  0  0  0  0  0
    0.5331   -7.6964   16.2751 C   0  0  0  0  0  0  0  0  0  0  0  0
   -0.6740  -10.8737   18.0482 C   0  0  0  0  0  0  0  0  0  0  0  0
    5.6751  -10.5870   29.7637 O   0  0  0  0  0  0  0  0  0  0  0  0
    1.7612   -5.6483   26.7172 C   0  0  0  0  0  0  0  0  0  0  0  0
    0.2221   -9.8326   17.4055 C   0  0  0  0  0  0  0  0  0  0  0  0
    4.3850   -9.0730   28.6745 C   0  0  0  0  0  0  0  0  0  0  0  0
  1  7  4  0
  1 22  4  0
  2 17  4  0
  2 20  4  0
  2 28  4  0
  3  6  1  0
  3 19  1  0
  4 19  1  0
  4 26  1  0
  5 17  4  0
  5 18  4  0
  6 20  1  0
  6 26  1  0
  7 24  4  0
  8 15  4  0
  8 24  4  0
  9 14  4  0
  9 21  4  0
 10 12  4  0
 10 27  4  0
 11 12  4  0
 11 23  4  0
 13 23  4  0
 13 27  4  0
 14 20  4  0
 15 22  4  0
 16 18  4  0
 16 25  2  0
 16 28  4  0
 21 28  4  0
 24 27  1  0
M  END
$$$$

 Created by Python create_sdf_string function

 28 31  0  0  0  0  0  0  0  0999 V2000
   -1.0054  -13.0622   19.1198 C   0  0  0  0  0  0  0  0  0  0  0  0
    3.1478   -8.5360   28.5161 C   0  0  0  0  0  0  0  0  0  0  0  0
    0.5798   -7.1906   27.9330 C   0  0  0  0  0  0  0  0  0  0  0  0
    0.3978   -5.1561   26.6955 C   0  0  0  0  0  0  0  0  0  0  0  0
    2.3063  -10.0533   30.0125 C   0  0  0  0  0  0  0  0  0  0  0  0
    1.8591   -6.8254   27.4685 N   0  0  0  0  0  0  0  0  0  0  0  0
   -0.2167  -12.1055   18.5568 C   0  0  0  0  0  0  0  0  0  0  0  0
   -2.0661  -10.6994   18.1916 C   0  0  0  0  0  0  0  0  0  0  0  0
    5.2703   -7.5691   27.1123 C   0  0  0  0  0  0  0  0  0  0  0  0
    1.6204   -9.9887   17.2935 C   0  0  0  0  0  0  0  0  0  0  0  0
    1.8931   -7.9265   16.2047 C   0  0  0  0  0  0  0  0  0  0  0  0
    2.4396   -9.0801   16.7132 C   0  0  0  0  0  0  0  0  0  0  0  0
   -0.2575   -8.6234   16.8582 C   0  0  0  0  0  0  0  0  0  0  0  0
    4.0614   -7.0367   27.0106 N   0  0  0  0  0  0  0  0  0  0  0  0
   -2.9133  -11.6279   18.7578 C   0  0  0  0  0  0  0  0  0  0  0  0
    4.5688  -10.1291   29.5758 C   0  0  0  0  0  0  0  0  0  0  0  0
    2.1008   -9.0410   29.1852 N   0  0  0  0  0  0  0  0  0  0  0  0
    3.4829  -10.5697   30.2091 N   0  0  0  0  0  0  0  0  0  0  0  0
   -0.3363   -6.1172   27.5628 C   0  0  0  0  0  0  0  0  0  0  0  0
    3.0331   -7.4400   27.6362 C   0  0  0  0  0  0  0  0  0  0  0  0
    5.4553   -8.5933   27.9644 C   0  0  0  0  0  0  0  0  0  0  0  0
   -2.3870  -12.8440   19.2512 C   0  0  0  0  0  0  0  0  0  0  0  0
    0.5331   -7.6964   16.2751 C   0  0  0  0  0  0  0  0  0  0  0  0
   -0.6740  -10.8737   18.0482 C   0  0  0  0  0  0  0  0  0  0  0  0
    5.6751  -10.5870   29.7637 O   0  0  0  0  0  0  0  0  0  0  0  0
    1.7612   -5.6483   26.7172 C   0  0  0  0  0  0  0  0  0  0  0  0
    0.2221   -9.8326   17.4055 C   0  0  0  0  0  0  0  0  0  0  0  0
    4.3850   -9.0730   28.6745 C   0  0  0  0  0  0  0  0  0  0  0  0
  1  7  4  0
  1 22  4  0
  2 17  4  0
  2 20  4  0
  2 28  4  0
  3  6  1  0
  3 19  1  0
  4 19  1  0
  4 26  1  0
  5 17  4  0
  5 18  4  0
  6 20  1  0
  6 26  1  0
  7 24  4  0
  8 15  4  0
  8 24  4  0
  9 14  4  0
  9 21  4  0
 10 12  4  0
 10 27  4  0
 11 12  4  0
 11 23  4  0
 13 23  4  0
 13 27  4  0
 14 20  4  0
 15 22  4  0
 16 18  4  0
 16 25  2  0
 16 28  4  0
 21 28  4  0
 24 27  1  0
M  END
$$$$

 Created by Python create_sdf_string function

 28 31  0  0  0  0  0  0  0  0999 V2000
   -1.0054  -13.0622   19.1198 C   0  0  0  0  0  0  0  0  0  0  0  0
    3.1478   -8.5360   28.5161 C   0  0  0  0  0  0  0  0  0  0  0  0
    0.5798   -7.1906   27.9330 C   0  0  0  0  0  0  0  0  0  0  0  0
    0.3978   -5.1561   26.6955 C   0  0  0  0  0  0  0  0  0  0  0  0
    2.3063  -10.0533   30.0125 C   0  0  0  0  0  0  0  0  0  0  0  0
    1.8591   -6.8254   27.4685 N   0  0  0  0  0  0  0  0  0  0  0  0
   -0.2167  -12.1055   18.5568 C   0  0  0  0  0  0  0  0  0  0  0  0
   -2.0661  -10.6994   18.1916 C   0  0  0  0  0  0  0  0  0  0  0  0
    5.2703   -7.5691   27.1123 C   0  0  0  0  0  0  0  0  0  0  0  0
    1.6204   -9.9887   17.2935 C   0  0  0  0  0  0  0  0  0  0  0  0
    1.8931   -7.9265   16.2047 C   0  0  0  0  0  0  0  0  0  0  0  0
    2.4396   -9.0801   16.7132 C   0  0  0  0  0  0  0  0  0  0  0  0
   -0.2575   -8.6234   16.8582 C   0  0  0  0  0  0  0  0  0  0  0  0
    4.0614   -7.0367   27.0106 N   0  0  0  0  0  0  0  0  0  0  0  0
   -2.9133  -11.6279   18.7578 C   0  0  0  0  0  0  0  0  0  0  0  0
    4.5688  -10.1291   29.5758 C   0  0  0  0  0  0  0  0  0  0  0  0
    2.1008   -9.0410   29.1852 N   0  0  0  0  0  0  0  0  0  0  0  0
    3.4829  -10.5697   30.2091 N   0  0  0  0  0  0  0  0  0  0  0  0
   -0.3363   -6.1172   27.5628 C   0  0  0  0  0  0  0  0  0  0  0  0
    3.0331   -7.4400   27.6362 C   0  0  0  0  0  0  0  0  0  0  0  0
    5.4553   -8.5933   27.9644 C   0  0  0  0  0  0  0  0  0  0  0  0
   -2.3870  -12.8440   19.2512 C   0  0  0  0  0  0  0  0  0  0  0  0
    0.5331   -7.6964   16.2751 C   0  0  0  0  0  0  0  0  0  0  0  0
   -0.6740  -10.8737   18.0482 C   0  0  0  0  0  0  0  0  0  0  0  0
    5.6751  -10.5870   29.7637 O   0  0  0  0  0  0  0  0  0  0  0  0
    1.7612   -5.6483   26.7172 C   0  0  0  0  0  0  0  0  0  0  0  0
    0.2221   -9.8326   17.4055 C   0  0  0  0  0  0  0  0  0  0  0  0
    4.3850   -9.0730   28.6745 C   0  0  0  0  0  0  0  0  0  0  0  0
  1  7  4  0
  1 22  4  0
  2 17  4  0
  2 20  4  0
  2 28  4  0
  3  6  1  0
  3 19  1  0
  4 19  1  0
  4 26  1  0
  5 17  4  0
  5 18  4  0
  6 20  1  0
  6 26  1  0
  7 24  4  0
  8 15  4  0
  8 24  4  0
  9 14  4  0
  9 21  4  0
 10 12  4  0
 10 27  4  0
 11 12  4  0
 11 23  4  0
 13 23  4  0
 13 27  4  0
 14 20  4  0
 15 22  4  0
 16 18  4  0
 16 25  2  0
 16 28  4  0
 21 28  4  0
 24 27  1  0
M  END
$$$$

 Created by Python create_sdf_string function

 28 31  0  0  0  0  0  0  0  0999 V2000
   -1.0054  -13.0622   19.1198 C   0  0  0  0  0  0  0  0  0  0  0  0
    3.1478   -8.5360   28.5161 C   0  0  0  0  0  0  0  0  0  0  0  0
    0.5798   -7.1906   27.9330 C   0  0  0  0  0  0  0  0  0  0  0  0
    0.3978   -5.1561   26.6955 C   0  0  0  0  0  0  0  0  0  0  0  0
    2.3063  -10.0533   30.0125 C   0  0  0  0  0  0  0  0  0  0  0  0
    1.8591   -6.8254   27.4685 N   0  0  0  0  0  0  0  0  0  0  0  0
   -0.2167  -12.1055   18.5568 C   0  0  0  0  0  0  0  0  0  0  0  0
   -2.0661  -10.6994   18.1916 C   0  0  0  0  0  0  0  0  0  0  0  0
    5.2703   -7.5691   27.1123 C   0  0  0  0  0  0  0  0  0  0  0  0
    1.6204   -9.9887   17.2935 C   0  0  0  0  0  0  0  0  0  0  0  0
    1.8931   -7.9265   16.2047 C   0  0  0  0  0  0  0  0  0  0  0  0
    2.4396   -9.0801   16.7132 C   0  0  0  0  0  0  0  0  0  0  0  0
   -0.2575   -8.6234   16.8582 C   0  0  0  0  0  0  0  0  0  0  0  0
    4.0614   -7.0367   27.0106 N   0  0  0  0  0  0  0  0  0  0  0  0
   -2.9133  -11.6279   18.7578 C   0  0  0  0  0  0  0  0  0  0  0  0
    4.5688  -10.1291   29.5758 C   0  0  0  0  0  0  0  0  0  0  0  0
    2.1008   -9.0410   29.1852 N   0  0  0  0  0  0  0  0  0  0  0  0
    3.4829  -10.5697   30.2091 N   0  0  0  0  0  0  0  0  0  0  0  0
   -0.3363   -6.1172   27.5628 C   0  0  0  0  0  0  0  0  0  0  0  0
    3.0331   -7.4400   27.6362 C   0  0  0  0  0  0  0  0  0  0  0  0
    5.4553   -8.5933   27.9644 C   0  0  0  0  0  0  0  0  0  0  0  0
   -2.3870  -12.8440   19.2512 C   0  0  0  0  0  0  0  0  0  0  0  0
    0.5331   -7.6964   16.2751 C   0  0  0  0  0  0  0  0  0  0  0  0
   -0.6740  -10.8737   18.0482 C   0  0  0  0  0  0  0  0  0  0  0  0
    5.6751  -10.5870   29.7637 O   0  0  0  0  0  0  0  0  0  0  0  0
    1.7612   -5.6483   26.7172 C   0  0  0  0  0  0  0  0  0  0  0  0
    0.2221   -9.8326   17.4055 C   0  0  0  0  0  0  0  0  0  0  0  0
    4.3850   -9.0730   28.6745 C   0  0  0  0  0  0  0  0  0  0  0  0
  1  7  4  0
  1 22  4  0
  2 17  4  0
  2 20  4  0
  2 28  4  0
  3  6  1  0
  3 19  1  0
  4 19  1  0
  4 26  1  0
  5 17  4  0
  5 18  4  0
  6 20  1  0
  6 26  1  0
  7 24  4  0
  8 15  4  0
  8 24  4  0
  9 14  4  0
  9 21  4  0
 10 12  4  0
 10 27  4  0
 11 12  4  0
 11 23  4  0
 13 23  4  0
 13 27  4  0
 14 20  4  0
 15 22  4  0
 16 18  4  0
 16 25  2  0
 16 28  4  0
 21 28  4  0
 24 27  1  0
M  END
$$$$

 Created by Python create_sdf_string function

 28 31  0  0  0  0  0  0  0  0999 V2000
   -1.0054  -13.0622   19.1198 C   0  0  0  0  0  0  0  0  0  0  0  0
    3.1478   -8.5360   28.5161 C   0  0  0  0  0  0  0  0  0  0  0  0
    0.5798   -7.1906   27.9330 C   0  0  0  0  0  0  0  0  0  0  0  0
    0.3978   -5.1561   26.6955 C   0  0  0  0  0  0  0  0  0  0  0  0
    2.3063  -10.0533   30.0125 C   0  0  0  0  0  0  0  0  0  0  0  0
    1.8591   -6.8254   27.4685 N   0  0  0  0  0  0  0  0  0  0  0  0
   -0.2167  -12.1055   18.5568 C   0  0  0  0  0  0  0  0  0  0  0  0
   -2.0661  -10.6994   18.1916 C   0  0  0  0  0  0  0  0  0  0  0  0
    5.2703   -7.5691   27.1123 C   0  0  0  0  0  0  0  0  0  0  0  0
    1.6204   -9.9887   17.2935 C   0  0  0  0  0  0  0  0  0  0  0  0
    1.8931   -7.9265   16.2047 C   0  0  0  0  0  0  0  0  0  0  0  0
    2.4396   -9.0801   16.7132 C   0  0  0  0  0  0  0  0  0  0  0  0
   -0.2575   -8.6234   16.8582 C   0  0  0  0  0  0  0  0  0  0  0  0
    4.0614   -7.0367   27.0106 N   0  0  0  0  0  0  0  0  0  0  0  0
   -2.9133  -11.6279   18.7578 C   0  0  0  0  0  0  0  0  0  0  0  0
    4.5688  -10.1291   29.5758 C   0  0  0  0  0  0  0  0  0  0  0  0
    2.1008   -9.0410   29.1852 N   0  0  0  0  0  0  0  0  0  0  0  0
    3.4829  -10.5697   30.2091 N   0  0  0  0  0  0  0  0  0  0  0  0
   -0.3363   -6.1172   27.5628 C   0  0  0  0  0  0  0  0  0  0  0  0
    3.0331   -7.4400   27.6362 C   0  0  0  0  0  0  0  0  0  0  0  0
    5.4553   -8.5933   27.9644 C   0  0  0  0  0  0  0  0  0  0  0  0
   -2.3870  -12.8440   19.2512 C   0  0  0  0  0  0  0  0  0  0  0  0
    0.5331   -7.6964   16.2751 C   0  0  0  0  0  0  0  0  0  0  0  0
   -0.6740  -10.8737   18.0482 C   0  0  0  0  0  0  0  0  0  0  0  0
    5.6751  -10.5870   29.7637 O   0  0  0  0  0  0  0  0  0  0  0  0
    1.7612   -5.6483   26.7172 C   0  0  0  0  0  0  0  0  0  0  0  0
    0.2221   -9.8326   17.4055 C   0  0  0  0  0  0  0  0  0  0  0  0
    4.3850   -9.0730   28.6745 C   0  0  0  0  0  0  0  0  0  0  0  0
  1  7  4  0
  1 22  4  0
  2 17  4  0
  2 20  4  0
  2 28  4  0
  3  6  1  0
  3 19  1  0
  4 19  1  0
  4 26  1  0
  5 17  4  0
  5 18  4  0
  6 20  1  0
  6 26  1  0
  7 24  4  0
  8 15  4  0
  8 24  4  0
  9 14  4  0
  9 21  4  0
 10 12  4  0
 10 27  4  0
 11 12  4  0
 11 23  4  0
 13 23  4  0
 13 27  4  0
 14 20  4  0
 15 22  4  0
 16 18  4  0
 16 25  2  0
 16 28  4  0
 21 28  4  0
 24 27  1  0
M  END
$$$$

 Created by Python create_sdf_string function

 28 31  0  0  0  0  0  0  0  0999 V2000
   -1.0054  -13.0622   19.1198 C   0  0  0  0  0  0  0  0  0  0  0  0
    3.1478   -8.5360   28.5161 C   0  0  0  0  0  0  0  0  0  0  0  0
    0.5798   -7.1906   27.9330 C   0  0  0  0  0  0  0  0  0  0  0  0
    0.3978   -5.1561   26.6955 C   0  0  0  0  0  0  0  0  0  0  0  0
    2.3063  -10.0533   30.0125 C   0  0  0  0  0  0  0  0  0  0  0  0
    1.8591   -6.8254   27.4685 N   0  0  0  0  0  0  0  0  0  0  0  0
   -0.2167  -12.1055   18.5568 C   0  0  0  0  0  0  0  0  0  0  0  0
   -2.0661  -10.6994   18.1916 C   0  0  0  0  0  0  0  0  0  0  0  0
    5.2703   -7.5691   27.1123 C   0  0  0  0  0  0  0  0  0  0  0  0
    1.6204   -9.9887   17.2935 C   0  0  0  0  0  0  0  0  0  0  0  0
    1.8931   -7.9265   16.2047 C   0  0  0  0  0  0  0  0  0  0  0  0
    2.4396   -9.0801   16.7132 C   0  0  0  0  0  0  0  0  0  0  0  0
   -0.2575   -8.6234   16.8582 C   0  0  0  0  0  0  0  0  0  0  0  0
    4.0614   -7.0367   27.0106 N   0  0  0  0  0  0  0  0  0  0  0  0
   -2.9133  -11.6279   18.7578 C   0  0  0  0  0  0  0  0  0  0  0  0
    4.5688  -10.1291   29.5758 C   0  0  0  0  0  0  0  0  0  0  0  0
    2.1008   -9.0410   29.1852 N   0  0  0  0  0  0  0  0  0  0  0  0
    3.4829  -10.5697   30.2091 N   0  0  0  0  0  0  0  0  0  0  0  0
   -0.3363   -6.1172   27.5628 C   0  0  0  0  0  0  0  0  0  0  0  0
    3.0331   -7.4400   27.6362 C   0  0  0  0  0  0  0  0  0  0  0  0
    5.4553   -8.5933   27.9644 C   0  0  0  0  0  0  0  0  0  0  0  0
   -2.3870  -12.8440   19.2512 C   0  0  0  0  0  0  0  0  0  0  0  0
    0.5331   -7.6964   16.2751 C   0  0  0  0  0  0  0  0  0  0  0  0
   -0.6740  -10.8737   18.0482 C   0  0  0  0  0  0  0  0  0  0  0  0
    5.6751  -10.5870   29.7637 O   0  0  0  0  0  0  0  0  0  0  0  0
    1.7612   -5.6483   26.7172 C   0  0  0  0  0  0  0  0  0  0  0  0
    0.2221   -9.8326   17.4055 C   0  0  0  0  0  0  0  0  0  0  0  0
    4.3850   -9.0730   28.6745 C   0  0  0  0  0  0  0  0  0  0  0  0
  1  7  4  0
  1 22  4  0
  2 17  4  0
  2 20  4  0
  2 28  4  0
  3  6  1  0
  3 19  1  0
  4 19  1  0
  4 26  1  0
  5 17  4  0
  5 18  4  0
  6 20  1  0
  6 26  1  0
  7 24  4  0
  8 15  4  0
  8 24  4  0
  9 14  4  0
  9 21  4  0
 10 12  4  0
 10 27  4  0
 11 12  4  0
 11 23  4  0
 13 23  4  0
 13 27  4  0
 14 20  4  0
 15 22  4  0
 16 18  4  0
 16 25  2  0
 16 28  4  0
 21 28  4  0
 24 27  1  0
M  END
$$$$

 Created by Python create_sdf_string function

 28 31  0  0  0  0  0  0  0  0999 V2000
   -1.0054  -13.0622   19.1198 C   0  0  0  0  0  0  0  0  0  0  0  0
    3.1478   -8.5360   28.5161 C   0  0  0  0  0  0  0  0  0  0  0  0
    0.5798   -7.1906   27.9330 C   0  0  0  0  0  0  0  0  0  0  0  0
    0.3978   -5.1561   26.6955 C   0  0  0  0  0  0  0  0  0  0  0  0
    2.3063  -10.0533   30.0125 C   0  0  0  0  0  0  0  0  0  0  0  0
    1.8591   -6.8254   27.4685 N   0  0  0  0  0  0  0  0  0  0  0  0
   -0.2167  -12.1055   18.5568 C   0  0  0  0  0  0  0  0  0  0  0  0
   -2.0661  -10.6994   18.1916 C   0  0  0  0  0  0  0  0  0  0  0  0
    5.2703   -7.5691   27.1123 C   0  0  0  0  0  0  0  0  0  0  0  0
    1.6204   -9.9887   17.2935 C   0  0  0  0  0  0  0  0  0  0  0  0
    1.8931   -7.9265   16.2047 C   0  0  0  0  0  0  0  0  0  0  0  0
    2.4396   -9.0801   16.7132 C   0  0  0  0  0  0  0  0  0  0  0  0
   -0.2575   -8.6234   16.8582 C   0  0  0  0  0  0  0  0  0  0  0  0
    4.0614   -7.0367   27.0106 N   0  0  0  0  0  0  0  0  0  0  0  0
   -2.9133  -11.6279   18.7578 C   0  0  0  0  0  0  0  0  0  0  0  0
    4.5688  -10.1291   29.5758 C   0  0  0  0  0  0  0  0  0  0  0  0
    2.1008   -9.0410   29.1852 N   0  0  0  0  0  0  0  0  0  0  0  0
    3.4829  -10.5697   30.2091 N   0  0  0  0  0  0  0  0  0  0  0  0
   -0.3363   -6.1172   27.5628 C   0  0  0  0  0  0  0  0  0  0  0  0
    3.0331   -7.4400   27.6362 C   0  0  0  0  0  0  0  0  0  0  0  0
    5.4553   -8.5933   27.9644 C   0  0  0  0  0  0  0  0  0  0  0  0
   -2.3870  -12.8440   19.2512 C   0  0  0  0  0  0  0  0  0  0  0  0
    0.5331   -7.6964   16.2751 C   0  0  0  0  0  0  0  0  0  0  0  0
   -0.6740  -10.8737   18.0482 C   0  0  0  0  0  0  0  0  0  0  0  0
    5.6751  -10.5870   29.7637 O   0  0  0  0  0  0  0  0  0  0  0  0
    1.7612   -5.6483   26.7172 C   0  0  0  0  0  0  0  0  0  0  0  0
    0.2221   -9.8326   17.4055 C   0  0  0  0  0  0  0  0  0  0  0  0
    4.3850   -9.0730   28.6745 C   0  0  0  0  0  0  0  0  0  0  0  0
  1  7  4  0
  1 22  4  0
  2 17  4  0
  2 20  4  0
  2 28  4  0
  3  6  1  0
  3 19  1  0
  4 19  1  0
  4 26  1  0
  5 17  4  0
  5 18  4  0
  6 20  1  0
  6 26  1  0
  7 24  4  0
  8 15  4  0
  8 24  4  0
  9 14  4  0
  9 21  4  0
 10 12  4  0
 10 27  4  0
 11 12  4  0
 11 23  4  0
 13 23  4  0
 13 27  4  0
 14 20  4  0
 15 22  4  0
 16 18  4  0
 16 25  2  0
 16 28  4  0
 21 28  4  0
 24 27  1  0
M  END
$$$$

 Created by Python create_sdf_string function

 28 31  0  0  0  0  0  0  0  0999 V2000
   -1.0054  -13.0622   19.1198 C   0  0  0  0  0  0  0  0  0  0  0  0
    3.1478   -8.5360   28.5161 C   0  0  0  0  0  0  0  0  0  0  0  0
    0.5798   -7.1906   27.9330 C   0  0  0  0  0  0  0  0  0  0  0  0
    0.3978   -5.1561   26.6955 C   0  0  0  0  0  0  0  0  0  0  0  0
    2.3063  -10.0533   30.0125 C   0  0  0  0  0  0  0  0  0  0  0  0
    1.8591   -6.8254   27.4685 N   0  0  0  0  0  0  0  0  0  0  0  0
   -0.2167  -12.1055   18.5568 C   0  0  0  0  0  0  0  0  0  0  0  0
   -2.0661  -10.6994   18.1916 C   0  0  0  0  0  0  0  0  0  0  0  0
    5.2703   -7.5691   27.1123 C   0  0  0  0  0  0  0  0  0  0  0  0
    1.6204   -9.9887   17.2935 C   0  0  0  0  0  0  0  0  0  0  0  0
    1.8931   -7.9265   16.2047 C   0  0  0  0  0  0  0  0  0  0  0  0
    2.4396   -9.0801   16.7132 C   0  0  0  0  0  0  0  0  0  0  0  0
   -0.2575   -8.6234   16.8582 C   0  0  0  0  0  0  0  0  0  0  0  0
    4.0614   -7.0367   27.0106 N   0  0  0  0  0  0  0  0  0  0  0  0
   -2.9133  -11.6279   18.7578 C   0  0  0  0  0  0  0  0  0  0  0  0
    4.5688  -10.1291   29.5758 C   0  0  0  0  0  0  0  0  0  0  0  0
    2.1008   -9.0410   29.1852 N   0  0  0  0  0  0  0  0  0  0  0  0
    3.4829  -10.5697   30.2091 N   0  0  0  0  0  0  0  0  0  0  0  0
   -0.3363   -6.1172   27.5628 C   0  0  0  0  0  0  0  0  0  0  0  0
    3.0331   -7.4400   27.6362 C   0  0  0  0  0  0  0  0  0  0  0  0
    5.4553   -8.5933   27.9644 C   0  0  0  0  0  0  0  0  0  0  0  0
   -2.3870  -12.8440   19.2512 C   0  0  0  0  0  0  0  0  0  0  0  0
    0.5331   -7.6964   16.2751 C   0  0  0  0  0  0  0  0  0  0  0  0
   -0.6740  -10.8737   18.0482 C   0  0  0  0  0  0  0  0  0  0  0  0
    5.6751  -10.5870   29.7637 O   0  0  0  0  0  0  0  0  0  0  0  0
    1.7612   -5.6483   26.7172 C   0  0  0  0  0  0  0  0  0  0  0  0
    0.2221   -9.8326   17.4055 C   0  0  0  0  0  0  0  0  0  0  0  0
    4.3850   -9.0730   28.6745 C   0  0  0  0  0  0  0  0  0  0  0  0
  1  7  4  0
  1 22  4  0
  2 17  4  0
  2 20  4  0
  2 28  4  0
  3  6  1  0
  3 19  1  0
  4 19  1  0
  4 26  1  0
  5 17  4  0
  5 18  4  0
  6 20  1  0
  6 26  1  0
  7 24  4  0
  8 15  4  0
  8 24  4  0
  9 14  4  0
  9 21  4  0
 10 12  4  0
 10 27  4  0
 11 12  4  0
 11 23  4  0
 13 23  4  0
 13 27  4  0
 14 20  4  0
 15 22  4  0
 16 18  4  0
 16 25  2  0
 16 28  4  0
 21 28  4  0
 24 27  1  0
M  END
$$$$

 Created by Python create_sdf_string function

 28 31  0  0  0  0  0  0  0  0999 V2000
   -1.0054  -13.0622   19.1198 C   0  0  0  0  0  0  0  0  0  0  0  0
    3.1478   -8.5360   28.5161 C   0  0  0  0  0  0  0  0  0  0  0  0
    0.5798   -7.1906   27.9330 C   0  0  0  0  0  0  0  0  0  0  0  0
    0.3978   -5.1561   26.6955 C   0  0  0  0  0  0  0  0  0  0  0  0
    2.3063  -10.0533   30.0125 C   0  0  0  0  0  0  0  0  0  0  0  0
    1.8591   -6.8254   27.4685 N   0  0  0  0  0  0  0  0  0  0  0  0
   -0.2167  -12.1055   18.5568 C   0  0  0  0  0  0  0  0  0  0  0  0
   -2.0661  -10.6994   18.1916 C   0  0  0  0  0  0  0  0  0  0  0  0
    5.2703   -7.5691   27.1123 C   0  0  0  0  0  0  0  0  0  0  0  0
    1.6204   -9.9887   17.2935 C   0  0  0  0  0  0  0  0  0  0  0  0
    1.8931   -7.9265   16.2047 C   0  0  0  0  0  0  0  0  0  0  0  0
    2.4396   -9.0801   16.7132 C   0  0  0  0  0  0  0  0  0  0  0  0
   -0.2575   -8.6234   16.8582 C   0  0  0  0  0  0  0  0  0  0  0  0
    4.0614   -7.0367   27.0106 N   0  0  0  0  0  0  0  0  0  0  0  0
   -2.9133  -11.6279   18.7578 C   0  0  0  0  0  0  0  0  0  0  0  0
    4.5688  -10.1291   29.5758 C   0  0  0  0  0  0  0  0  0  0  0  0
    2.1008   -9.0410   29.1852 N   0  0  0  0  0  0  0  0  0  0  0  0
    3.4829  -10.5697   30.2091 N   0  0  0  0  0  0  0  0  0  0  0  0
   -0.3363   -6.1172   27.5628 C   0  0  0  0  0  0  0  0  0  0  0  0
    3.0331   -7.4400   27.6362 C   0  0  0  0  0  0  0  0  0  0  0  0
    5.4553   -8.5933   27.9644 C   0  0  0  0  0  0  0  0  0  0  0  0
   -2.3870  -12.8440   19.2512 C   0  0  0  0  0  0  0  0  0  0  0  0
    0.5331   -7.6964   16.2751 C   0  0  0  0  0  0  0  0  0  0  0  0
   -0.6740  -10.8737   18.0482 C   0  0  0  0  0  0  0  0  0  0  0  0
    5.6751  -10.5870   29.7637 O   0  0  0  0  0  0  0  0  0  0  0  0
    1.7612   -5.6483   26.7172 C   0  0  0  0  0  0  0  0  0  0  0  0
    0.2221   -9.8326   17.4055 C   0  0  0  0  0  0  0  0  0  0  0  0
    4.3850   -9.0730   28.6745 C   0  0  0  0  0  0  0  0  0  0  0  0
  1  7  4  0
  1 22  4  0
  2 17  4  0
  2 20  4  0
  2 28  4  0
  3  6  1  0
  3 19  1  0
  4 19  1  0
  4 26  1  0
  5 17  4  0
  5 18  4  0
  6 20  1  0
  6 26  1  0
  7 24  4  0
  8 15  4  0
  8 24  4  0
  9 14  4  0
  9 21  4  0
 10 12  4  0
 10 27  4  0
 11 12  4  0
 11 23  4  0
 13 23  4  0
 13 27  4  0
 14 20  4  0
 15 22  4  0
 16 18  4  0
 16 25  2  0
 16 28  4  0
 21 28  4  0
 24 27  1  0
M  END
$$$$

 Created by Python create_sdf_string function

 28 31  0  0  0  0  0  0  0  0999 V2000
   -1.0054  -13.0622   19.1198 C   0  0  0  0  0  0  0  0  0  0  0  0
    3.1478   -8.5360   28.5161 C   0  0  0  0  0  0  0  0  0  0  0  0
    0.5798   -7.1906   27.9330 C   0  0  0  0  0  0  0  0  0  0  0  0
    0.3978   -5.1561   26.6955 C   0  0  0  0  0  0  0  0  0  0  0  0
    2.3063  -10.0533   30.0125 C   0  0  0  0  0  0  0  0  0  0  0  0
    1.8591   -6.8254   27.4685 N   0  0  0  0  0  0  0  0  0  0  0  0
   -0.2167  -12.1055   18.5568 C   0  0  0  0  0  0  0  0  0  0  0  0
   -2.0661  -10.6994   18.1916 C   0  0  0  0  0  0  0  0  0  0  0  0
    5.2703   -7.5691   27.1123 C   0  0  0  0  0  0  0  0  0  0  0  0
    1.6204   -9.9887   17.2935 C   0  0  0  0  0  0  0  0  0  0  0  0
    1.8931   -7.9265   16.2047 C   0  0  0  0  0  0  0  0  0  0  0  0
    2.4396   -9.0801   16.7132 C   0  0  0  0  0  0  0  0  0  0  0  0
   -0.2575   -8.6234   16.8582 C   0  0  0  0  0  0  0  0  0  0  0  0
    4.0614   -7.0367   27.0106 N   0  0  0  0  0  0  0  0  0  0  0  0
   -2.9133  -11.6279   18.7578 C   0  0  0  0  0  0  0  0  0  0  0  0
    4.5688  -10.1291   29.5758 C   0  0  0  0  0  0  0  0  0  0  0  0
    2.1008   -9.0410   29.1852 N   0  0  0  0  0  0  0  0  0  0  0  0
    3.4829  -10.5697   30.2091 N   0  0  0  0  0  0  0  0  0  0  0  0
   -0.3363   -6.1172   27.5628 C   0  0  0  0  0  0  0  0  0  0  0  0
    3.0331   -7.4400   27.6362 C   0  0  0  0  0  0  0  0  0  0  0  0
    5.4553   -8.5933   27.9644 C   0  0  0  0  0  0  0  0  0  0  0  0
   -2.3870  -12.8440   19.2512 C   0  0  0  0  0  0  0  0  0  0  0  0
    0.5331   -7.6964   16.2751 C   0  0  0  0  0  0  0  0  0  0  0  0
   -0.6740  -10.8737   18.0482 C   0  0  0  0  0  0  0  0  0  0  0  0
    5.6751  -10.5870   29.7637 O   0  0  0  0  0  0  0  0  0  0  0  0
    1.7612   -5.6483   26.7172 C   0  0  0  0  0  0  0  0  0  0  0  0
    0.2221   -9.8326   17.4055 C   0  0  0  0  0  0  0  0  0  0  0  0
    4.3850   -9.0730   28.6745 C   0  0  0  0  0  0  0  0  0  0  0  0
  1  7  4  0
  1 22  4  0
  2 17  4  0
  2 20  4  0
  2 28  4  0
  3  6  1  0
  3 19  1  0
  4 19  1  0
  4 26  1  0
  5 17  4  0
  5 18  4  0
  6 20  1  0
  6 26  1  0
  7 24  4  0
  8 15  4  0
  8 24  4  0
  9 14  4  0
  9 21  4  0
 10 12  4  0
 10 27  4  0
 11 12  4  0
 11 23  4  0
 13 23  4  0
 13 27  4  0
 14 20  4  0
 15 22  4  0
 16 18  4  0
 16 25  2  0
 16 28  4  0
 21 28  4  0
 24 27  1  0
M  END
$$$$

 Created by Python create_sdf_string function

 28 31  0  0  0  0  0  0  0  0999 V2000
   -1.0054  -13.0622   19.1198 C   0  0  0  0  0  0  0  0  0  0  0  0
    3.1478   -8.5360   28.5161 C   0  0  0  0  0  0  0  0  0  0  0  0
    0.5798   -7.1906   27.9330 C   0  0  0  0  0  0  0  0  0  0  0  0
    0.3978   -5.1561   26.6955 C   0  0  0  0  0  0  0  0  0  0  0  0
    2.3063  -10.0533   30.0125 C   0  0  0  0  0  0  0  0  0  0  0  0
    1.8591   -6.8254   27.4685 N   0  0  0  0  0  0  0  0  0  0  0  0
   -0.2167  -12.1055   18.5568 C   0  0  0  0  0  0  0  0  0  0  0  0
   -2.0661  -10.6994   18.1916 C   0  0  0  0  0  0  0  0  0  0  0  0
    5.2703   -7.5691   27.1123 C   0  0  0  0  0  0  0  0  0  0  0  0
    1.6204   -9.9887   17.2935 C   0  0  0  0  0  0  0  0  0  0  0  0
    1.8931   -7.9265   16.2047 C   0  0  0  0  0  0  0  0  0  0  0  0
    2.4396   -9.0801   16.7132 C   0  0  0  0  0  0  0  0  0  0  0  0
   -0.2575   -8.6234   16.8582 C   0  0  0  0  0  0  0  0  0  0  0  0
    4.0614   -7.0367   27.0106 N   0  0  0  0  0  0  0  0  0  0  0  0
   -2.9133  -11.6279   18.7578 C   0  0  0  0  0  0  0  0  0  0  0  0
    4.5688  -10.1291   29.5758 C   0  0  0  0  0  0  0  0  0  0  0  0
    2.1008   -9.0410   29.1852 N   0  0  0  0  0  0  0  0  0  0  0  0
    3.4829  -10.5697   30.2091 N   0  0  0  0  0  0  0  0  0  0  0  0
   -0.3363   -6.1172   27.5628 C   0  0  0  0  0  0  0  0  0  0  0  0
    3.0331   -7.4400   27.6362 C   0  0  0  0  0  0  0  0  0  0  0  0
    5.4553   -8.5933   27.9644 C   0  0  0  0  0  0  0  0  0  0  0  0
   -2.3870  -12.8440   19.2512 C   0  0  0  0  0  0  0  0  0  0  0  0
    0.5331   -7.6964   16.2751 C   0  0  0  0  0  0  0  0  0  0  0  0
   -0.6740  -10.8737   18.0482 C   0  0  0  0  0  0  0  0  0  0  0  0
    5.6751  -10.5870   29.7637 O   0  0  0  0  0  0  0  0  0  0  0  0
    1.7612   -5.6483   26.7172 C   0  0  0  0  0  0  0  0  0  0  0  0
    0.2221   -9.8326   17.4055 C   0  0  0  0  0  0  0  0  0  0  0  0
    4.3850   -9.0730   28.6745 C   0  0  0  0  0  0  0  0  0  0  0  0
  1  7  4  0
  1 22  4  0
  2 17  4  0
  2 20  4  0
  2 28  4  0
  3  6  1  0
  3 19  1  0
  4 19  1  0
  4 26  1  0
  5 17  4  0
  5 18  4  0
  6 20  1  0
  6 26  1  0
  7 24  4  0
  8 15  4  0
  8 24  4  0
  9 14  4  0
  9 21  4  0
 10 12  4  0
 10 27  4  0
 11 12  4  0
 11 23  4  0
 13 23  4  0
 13 27  4  0
 14 20  4  0
 15 22  4  0
 16 18  4  0
 16 25  2  0
 16 28  4  0
 21 28  4  0
 24 27  1  0
M  END
$$$$

 Created by Python create_sdf_string function

 28 31  0  0  0  0  0  0  0  0999 V2000
   -1.0054  -13.0622   19.1198 C   0  0  0  0  0  0  0  0  0  0  0  0
    3.1478   -8.5360   28.5161 C   0  0  0  0  0  0  0  0  0  0  0  0
    0.5798   -7.1906   27.9330 C   0  0  0  0  0  0  0  0  0  0  0  0
    0.3978   -5.1561   26.6955 C   0  0  0  0  0  0  0  0  0  0  0  0
    2.3063  -10.0533   30.0125 C   0  0  0  0  0  0  0  0  0  0  0  0
    1.8591   -6.8254   27.4685 N   0  0  0  0  0  0  0  0  0  0  0  0
   -0.2167  -12.1055   18.5568 C   0  0  0  0  0  0  0  0  0  0  0  0
   -2.0661  -10.6994   18.1916 C   0  0  0  0  0  0  0  0  0  0  0  0
    5.2703   -7.5691   27.1123 C   0  0  0  0  0  0  0  0  0  0  0  0
    1.6204   -9.9887   17.2935 C   0  0  0  0  0  0  0  0  0  0  0  0
    1.8931   -7.9265   16.2047 C   0  0  0  0  0  0  0  0  0  0  0  0
    2.4396   -9.0801   16.7132 C   0  0  0  0  0  0  0  0  0  0  0  0
   -0.2575   -8.6234   16.8582 C   0  0  0  0  0  0  0  0  0  0  0  0
    4.0614   -7.0367   27.0106 N   0  0  0  0  0  0  0  0  0  0  0  0
   -2.9133  -11.6279   18.7578 C   0  0  0  0  0  0  0  0  0  0  0  0
    4.5688  -10.1291   29.5758 C   0  0  0  0  0  0  0  0  0  0  0  0
    2.1008   -9.0410   29.1852 N   0  0  0  0  0  0  0  0  0  0  0  0
    3.4829  -10.5697   30.2091 N   0  0  0  0  0  0  0  0  0  0  0  0
   -0.3363   -6.1172   27.5628 C   0  0  0  0  0  0  0  0  0  0  0  0
    3.0331   -7.4400   27.6362 C   0  0  0  0  0  0  0  0  0  0  0  0
    5.4553   -8.5933   27.9644 C   0  0  0  0  0  0  0  0  0  0  0  0
   -2.3870  -12.8440   19.2512 C   0  0  0  0  0  0  0  0  0  0  0  0
    0.5331   -7.6964   16.2751 C   0  0  0  0  0  0  0  0  0  0  0  0
   -0.6740  -10.8737   18.0482 C   0  0  0  0  0  0  0  0  0  0  0  0
    5.6751  -10.5870   29.7637 O   0  0  0  0  0  0  0  0  0  0  0  0
    1.7612   -5.6483   26.7172 C   0  0  0  0  0  0  0  0  0  0  0  0
    0.2221   -9.8326   17.4055 C   0  0  0  0  0  0  0  0  0  0  0  0
    4.3850   -9.0730   28.6745 C   0  0  0  0  0  0  0  0  0  0  0  0
  1  7  4  0
  1 22  4  0
  2 17  4  0
  2 20  4  0
  2 28  4  0
  3  6  1  0
  3 19  1  0
  4 19  1  0
  4 26  1  0
  5 17  4  0
  5 18  4  0
  6 20  1  0
  6 26  1  0
  7 24  4  0
  8 15  4  0
  8 24  4  0
  9 14  4  0
  9 21  4  0
 10 12  4  0
 10 27  4  0
 11 12  4  0
 11 23  4  0
 13 23  4  0
 13 27  4  0
 14 20  4  0
 15 22  4  0
 16 18  4  0
 16 25  2  0
 16 28  4  0
 21 28  4  0
 24 27  1  0
M  END
$$$$

 Created by Python create_sdf_string function

 28 31  0  0  0  0  0  0  0  0999 V2000
   -1.0054  -13.0622   19.1198 C   0  0  0  0  0  0  0  0  0  0  0  0
    3.1478   -8.5360   28.5161 C   0  0  0  0  0  0  0  0  0  0  0  0
    0.5798   -7.1906   27.9330 C   0  0  0  0  0  0  0  0  0  0  0  0
    0.3978   -5.1561   26.6955 C   0  0  0  0  0  0  0  0  0  0  0  0
    2.3063  -10.0533   30.0125 C   0  0  0  0  0  0  0  0  0  0  0  0
    1.8591   -6.8254   27.4685 N   0  0  0  0  0  0  0  0  0  0  0  0
   -0.2167  -12.1055   18.5568 C   0  0  0  0  0  0  0  0  0  0  0  0
   -2.0661  -10.6994   18.1916 C   0  0  0  0  0  0  0  0  0  0  0  0
    5.2703   -7.5691   27.1123 C   0  0  0  0  0  0  0  0  0  0  0  0
    1.6204   -9.9887   17.2935 C   0  0  0  0  0  0  0  0  0  0  0  0
    1.8931   -7.9265   16.2047 C   0  0  0  0  0  0  0  0  0  0  0  0
    2.4396   -9.0801   16.7132 C   0  0  0  0  0  0  0  0  0  0  0  0
   -0.2575   -8.6234   16.8582 C   0  0  0  0  0  0  0  0  0  0  0  0
    4.0614   -7.0367   27.0106 N   0  0  0  0  0  0  0  0  0  0  0  0
   -2.9133  -11.6279   18.7578 C   0  0  0  0  0  0  0  0  0  0  0  0
    4.5688  -10.1291   29.5758 C   0  0  0  0  0  0  0  0  0  0  0  0
    2.1008   -9.0410   29.1852 N   0  0  0  0  0  0  0  0  0  0  0  0
    3.4829  -10.5697   30.2091 N   0  0  0  0  0  0  0  0  0  0  0  0
   -0.3363   -6.1172   27.5628 C   0  0  0  0  0  0  0  0  0  0  0  0
    3.0331   -7.4400   27.6362 C   0  0  0  0  0  0  0  0  0  0  0  0
    5.4553   -8.5933   27.9644 C   0  0  0  0  0  0  0  0  0  0  0  0
   -2.3870  -12.8440   19.2512 C   0  0  0  0  0  0  0  0  0  0  0  0
    0.5331   -7.6964   16.2751 C   0  0  0  0  0  0  0  0  0  0  0  0
   -0.6740  -10.8737   18.0482 C   0  0  0  0  0  0  0  0  0  0  0  0
    5.6751  -10.5870   29.7637 O   0  0  0  0  0  0  0  0  0  0  0  0
    1.7612   -5.6483   26.7172 C   0  0  0  0  0  0  0  0  0  0  0  0
    0.2221   -9.8326   17.4055 C   0  0  0  0  0  0  0  0  0  0  0  0
    4.3850   -9.0730   28.6745 C   0  0  0  0  0  0  0  0  0  0  0  0
  1  7  4  0
  1 22  4  0
  2 17  4  0
  2 20  4  0
  2 28  4  0
  3  6  1  0
  3 19  1  0
  4 19  1  0
  4 26  1  0
  5 17  4  0
  5 18  4  0
  6 20  1  0
  6 26  1  0
  7 24  4  0
  8 15  4  0
  8 24  4  0
  9 14  4  0
  9 21  4  0
 10 12  4  0
 10 27  4  0
 11 12  4  0
 11 23  4  0
 13 23  4  0
 13 27  4  0
 14 20  4  0
 15 22  4  0
 16 18  4  0
 16 25  2  0
 16 28  4  0
 21 28  4  0
 24 27  1  0
M  END
$$$$

 Created by Python create_sdf_string function

 28 31  0  0  0  0  0  0  0  0999 V2000
   -1.0054  -13.0622   19.1198 C   0  0  0  0  0  0  0  0  0  0  0  0
    3.1478   -8.5360   28.5161 C   0  0  0  0  0  0  0  0  0  0  0  0
    0.5798   -7.1906   27.9330 C   0  0  0  0  0  0  0  0  0  0  0  0
    0.3978   -5.1561   26.6955 C   0  0  0  0  0  0  0  0  0  0  0  0
    2.3063  -10.0533   30.0125 C   0  0  0  0  0  0  0  0  0  0  0  0
    1.8591   -6.8254   27.4685 N   0  0  0  0  0  0  0  0  0  0  0  0
   -0.2167  -12.1055   18.5568 C   0  0  0  0  0  0  0  0  0  0  0  0
   -2.0661  -10.6994   18.1916 C   0  0  0  0  0  0  0  0  0  0  0  0
    5.2703   -7.5691   27.1123 C   0  0  0  0  0  0  0  0  0  0  0  0
    1.6204   -9.9887   17.2935 C   0  0  0  0  0  0  0  0  0  0  0  0
    1.8931   -7.9265   16.2047 C   0  0  0  0  0  0  0  0  0  0  0  0
    2.4396   -9.0801   16.7132 C   0  0  0  0  0  0  0  0  0  0  0  0
   -0.2575   -8.6234   16.8582 C   0  0  0  0  0  0  0  0  0  0  0  0
    4.0614   -7.0367   27.0106 N   0  0  0  0  0  0  0  0  0  0  0  0
   -2.9133  -11.6279   18.7578 C   0  0  0  0  0  0  0  0  0  0  0  0
    4.5688  -10.1291   29.5758 C   0  0  0  0  0  0  0  0  0  0  0  0
    2.1008   -9.0410   29.1852 N   0  0  0  0  0  0  0  0  0  0  0  0
    3.4829  -10.5697   30.2091 N   0  0  0  0  0  0  0  0  0  0  0  0
   -0.3363   -6.1172   27.5628 C   0  0  0  0  0  0  0  0  0  0  0  0
    3.0331   -7.4400   27.6362 C   0  0  0  0  0  0  0  0  0  0  0  0
    5.4553   -8.5933   27.9644 C   0  0  0  0  0  0  0  0  0  0  0  0
   -2.3870  -12.8440   19.2512 C   0  0  0  0  0  0  0  0  0  0  0  0
    0.5331   -7.6964   16.2751 C   0  0  0  0  0  0  0  0  0  0  0  0
   -0.6740  -10.8737   18.0482 C   0  0  0  0  0  0  0  0  0  0  0  0
    5.6751  -10.5870   29.7637 O   0  0  0  0  0  0  0  0  0  0  0  0
    1.7612   -5.6483   26.7172 C   0  0  0  0  0  0  0  0  0  0  0  0
    0.2221   -9.8326   17.4055 C   0  0  0  0  0  0  0  0  0  0  0  0
    4.3850   -9.0730   28.6745 C   0  0  0  0  0  0  0  0  0  0  0  0
  1  7  4  0
  1 22  4  0
  2 17  4  0
  2 20  4  0
  2 28  4  0
  3  6  1  0
  3 19  1  0
  4 19  1  0
  4 26  1  0
  5 17  4  0
  5 18  4  0
  6 20  1  0
  6 26  1  0
  7 24  4  0
  8 15  4  0
  8 24  4  0
  9 14  4  0
  9 21  4  0
 10 12  4  0
 10 27  4  0
 11 12  4  0
 11 23  4  0
 13 23  4  0
 13 27  4  0
 14 20  4  0
 15 22  4  0
 16 18  4  0
 16 25  2  0
 16 28  4  0
 21 28  4  0
 24 27  1  0
M  END
$$$$

 Created by Python create_sdf_string function

 28 31  0  0  0  0  0  0  0  0999 V2000
   -1.0054  -13.0622   19.1198 C   0  0  0  0  0  0  0  0  0  0  0  0
    3.1478   -8.5360   28.5161 C   0  0  0  0  0  0  0  0  0  0  0  0
    0.5798   -7.1906   27.9330 C   0  0  0  0  0  0  0  0  0  0  0  0
    0.3978   -5.1561   26.6955 C   0  0  0  0  0  0  0  0  0  0  0  0
    2.3063  -10.0533   30.0125 C   0  0  0  0  0  0  0  0  0  0  0  0
    1.8591   -6.8254   27.4685 N   0  0  0  0  0  0  0  0  0  0  0  0
   -0.2167  -12.1055   18.5568 C   0  0  0  0  0  0  0  0  0  0  0  0
   -2.0661  -10.6994   18.1916 C   0  0  0  0  0  0  0  0  0  0  0  0
    5.2703   -7.5691   27.1123 C   0  0  0  0  0  0  0  0  0  0  0  0
    1.6204   -9.9887   17.2935 C   0  0  0  0  0  0  0  0  0  0  0  0
    1.8931   -7.9265   16.2047 C   0  0  0  0  0  0  0  0  0  0  0  0
    2.4396   -9.0801   16.7132 C   0  0  0  0  0  0  0  0  0  0  0  0
   -0.2575   -8.6234   16.8582 C   0  0  0  0  0  0  0  0  0  0  0  0
    4.0614   -7.0367   27.0106 N   0  0  0  0  0  0  0  0  0  0  0  0
   -2.9133  -11.6279   18.7578 C   0  0  0  0  0  0  0  0  0  0  0  0
    4.5688  -10.1291   29.5758 C   0  0  0  0  0  0  0  0  0  0  0  0
    2.1008   -9.0410   29.1852 N   0  0  0  0  0  0  0  0  0  0  0  0
    3.4829  -10.5697   30.2091 N   0  0  0  0  0  0  0  0  0  0  0  0
   -0.3363   -6.1172   27.5628 C   0  0  0  0  0  0  0  0  0  0  0  0
    3.0331   -7.4400   27.6362 C   0  0  0  0  0  0  0  0  0  0  0  0
    5.4553   -8.5933   27.9644 C   0  0  0  0  0  0  0  0  0  0  0  0
   -2.3870  -12.8440   19.2512 C   0  0  0  0  0  0  0  0  0  0  0  0
    0.5331   -7.6964   16.2751 C   0  0  0  0  0  0  0  0  0  0  0  0
   -0.6740  -10.8737   18.0482 C   0  0  0  0  0  0  0  0  0  0  0  0
    5.6751  -10.5870   29.7637 O   0  0  0  0  0  0  0  0  0  0  0  0
    1.7612   -5.6483   26.7172 C   0  0  0  0  0  0  0  0  0  0  0  0
    0.2221   -9.8326   17.4055 C   0  0  0  0  0  0  0  0  0  0  0  0
    4.3850   -9.0730   28.6745 C   0  0  0  0  0  0  0  0  0  0  0  0
  1  7  4  0
  1 22  4  0
  2 17  4  0
  2 20  4  0
  2 28  4  0
  3  6  1  0
  3 19  1  0
  4 19  1  0
  4 26  1  0
  5 17  4  0
  5 18  4  0
  6 20  1  0
  6 26  1  0
  7 24  4  0
  8 15  4  0
  8 24  4  0
  9 14  4  0
  9 21  4  0
 10 12  4  0
 10 27  4  0
 11 12  4  0
 11 23  4  0
 13 23  4  0
 13 27  4  0
 14 20  4  0
 15 22  4  0
 16 18  4  0
 16 25  2  0
 16 28  4  0
 21 28  4  0
 24 27  1  0
M  END
$$$$

 Created by Python create_sdf_string function

 28 31  0  0  0  0  0  0  0  0999 V2000
   -1.0054  -13.0622   19.1198 C   0  0  0  0  0  0  0  0  0  0  0  0
    3.1478   -8.5360   28.5161 C   0  0  0  0  0  0  0  0  0  0  0  0
    0.5798   -7.1906   27.9330 C   0  0  0  0  0  0  0  0  0  0  0  0
    0.3978   -5.1561   26.6955 C   0  0  0  0  0  0  0  0  0  0  0  0
    2.3063  -10.0533   30.0125 C   0  0  0  0  0  0  0  0  0  0  0  0
    1.8591   -6.8254   27.4685 N   0  0  0  0  0  0  0  0  0  0  0  0
   -0.2167  -12.1055   18.5568 C   0  0  0  0  0  0  0  0  0  0  0  0
   -2.0661  -10.6994   18.1916 C   0  0  0  0  0  0  0  0  0  0  0  0
    5.2703   -7.5691   27.1123 C   0  0  0  0  0  0  0  0  0  0  0  0
    1.6204   -9.9887   17.2935 C   0  0  0  0  0  0  0  0  0  0  0  0
    1.8931   -7.9265   16.2047 C   0  0  0  0  0  0  0  0  0  0  0  0
    2.4396   -9.0801   16.7132 C   0  0  0  0  0  0  0  0  0  0  0  0
   -0.2575   -8.6234   16.8582 C   0  0  0  0  0  0  0  0  0  0  0  0
    4.0614   -7.0367   27.0106 N   0  0  0  0  0  0  0  0  0  0  0  0
   -2.9133  -11.6279   18.7578 C   0  0  0  0  0  0  0  0  0  0  0  0
    4.5688  -10.1291   29.5758 C   0  0  0  0  0  0  0  0  0  0  0  0
    2.1008   -9.0410   29.1852 N   0  0  0  0  0  0  0  0  0  0  0  0
    3.4829  -10.5697   30.2091 N   0  0  0  0  0  0  0  0  0  0  0  0
   -0.3363   -6.1172   27.5628 C   0  0  0  0  0  0  0  0  0  0  0  0
    3.0331   -7.4400   27.6362 C   0  0  0  0  0  0  0  0  0  0  0  0
    5.4553   -8.5933   27.9644 C   0  0  0  0  0  0  0  0  0  0  0  0
   -2.3870  -12.8440   19.2512 C   0  0  0  0  0  0  0  0  0  0  0  0
    0.5331   -7.6964   16.2751 C   0  0  0  0  0  0  0  0  0  0  0  0
   -0.6740  -10.8737   18.0482 C   0  0  0  0  0  0  0  0  0  0  0  0
    5.6751  -10.5870   29.7637 O   0  0  0  0  0  0  0  0  0  0  0  0
    1.7612   -5.6483   26.7172 C   0  0  0  0  0  0  0  0  0  0  0  0
    0.2221   -9.8326   17.4055 C   0  0  0  0  0  0  0  0  0  0  0  0
    4.3850   -9.0730   28.6745 C   0  0  0  0  0  0  0  0  0  0  0  0
  1  7  4  0
  1 22  4  0
  2 17  4  0
  2 20  4  0
  2 28  4  0
  3  6  1  0
  3 19  1  0
  4 19  1  0
  4 26  1  0
  5 17  4  0
  5 18  4  0
  6 20  1  0
  6 26  1  0
  7 24  4  0
  8 15  4  0
  8 24  4  0
  9 14  4  0
  9 21  4  0
 10 12  4  0
 10 27  4  0
 11 12  4  0
 11 23  4  0
 13 23  4  0
 13 27  4  0
 14 20  4  0
 15 22  4  0
 16 18  4  0
 16 25  2  0
 16 28  4  0
 21 28  4  0
 24 27  1  0
M  END
$$$$

 Created by Python create_sdf_string function

 28 31  0  0  0  0  0  0  0  0999 V2000
   -1.0054  -13.0622   19.1198 C   0  0  0  0  0  0  0  0  0  0  0  0
    3.1478   -8.5360   28.5161 C   0  0  0  0  0  0  0  0  0  0  0  0
    0.5798   -7.1906   27.9330 C   0  0  0  0  0  0  0  0  0  0  0  0
    0.3978   -5.1561   26.6955 C   0  0  0  0  0  0  0  0  0  0  0  0
    2.3063  -10.0533   30.0125 C   0  0  0  0  0  0  0  0  0  0  0  0
    1.8591   -6.8254   27.4685 N   0  0  0  0  0  0  0  0  0  0  0  0
   -0.2167  -12.1055   18.5568 C   0  0  0  0  0  0  0  0  0  0  0  0
   -2.0661  -10.6994   18.1916 C   0  0  0  0  0  0  0  0  0  0  0  0
    5.2703   -7.5691   27.1123 C   0  0  0  0  0  0  0  0  0  0  0  0
    1.6204   -9.9887   17.2935 C   0  0  0  0  0  0  0  0  0  0  0  0
    1.8931   -7.9265   16.2047 C   0  0  0  0  0  0  0  0  0  0  0  0
    2.4396   -9.0801   16.7132 C   0  0  0  0  0  0  0  0  0  0  0  0
   -0.2575   -8.6234   16.8582 C   0  0  0  0  0  0  0  0  0  0  0  0
    4.0614   -7.0367   27.0106 N   0  0  0  0  0  0  0  0  0  0  0  0
   -2.9133  -11.6279   18.7578 C   0  0  0  0  0  0  0  0  0  0  0  0
    4.5688  -10.1291   29.5758 C   0  0  0  0  0  0  0  0  0  0  0  0
    2.1008   -9.0410   29.1852 N   0  0  0  0  0  0  0  0  0  0  0  0
    3.4829  -10.5697   30.2091 N   0  0  0  0  0  0  0  0  0  0  0  0
   -0.3363   -6.1172   27.5628 C   0  0  0  0  0  0  0  0  0  0  0  0
    3.0331   -7.4400   27.6362 C   0  0  0  0  0  0  0  0  0  0  0  0
    5.4553   -8.5933   27.9644 C   0  0  0  0  0  0  0  0  0  0  0  0
   -2.3870  -12.8440   19.2512 C   0  0  0  0  0  0  0  0  0  0  0  0
    0.5331   -7.6964   16.2751 C   0  0  0  0  0  0  0  0  0  0  0  0
   -0.6740  -10.8737   18.0482 C   0  0  0  0  0  0  0  0  0  0  0  0
    5.6751  -10.5870   29.7637 O   0  0  0  0  0  0  0  0  0  0  0  0
    1.7612   -5.6483   26.7172 C   0  0  0  0  0  0  0  0  0  0  0  0
    0.2221   -9.8326   17.4055 C   0  0  0  0  0  0  0  0  0  0  0  0
    4.3850   -9.0730   28.6745 C   0  0  0  0  0  0  0  0  0  0  0  0
  1  7  4  0
  1 22  4  0
  2 17  4  0
  2 20  4  0
  2 28  4  0
  3  6  1  0
  3 19  1  0
  4 19  1  0
  4 26  1  0
  5 17  4  0
  5 18  4  0
  6 20  1  0
  6 26  1  0
  7 24  4  0
  8 15  4  0
  8 24  4  0
  9 14  4  0
  9 21  4  0
 10 12  4  0
 10 27  4  0
 11 12  4  0
 11 23  4  0
 13 23  4  0
 13 27  4  0
 14 20  4  0
 15 22  4  0
 16 18  4  0
 16 25  2  0
 16 28  4  0
 21 28  4  0
 24 27  1  0
M  END
$$$$

 Created by Python create_sdf_string function

 28 31  0  0  0  0  0  0  0  0999 V2000
   -1.0054  -13.0622   19.1198 C   0  0  0  0  0  0  0  0  0  0  0  0
    3.1478   -8.5360   28.5161 C   0  0  0  0  0  0  0  0  0  0  0  0
    0.5798   -7.1906   27.9330 C   0  0  0  0  0  0  0  0  0  0  0  0
    0.3978   -5.1561   26.6955 C   0  0  0  0  0  0  0  0  0  0  0  0
    2.3063  -10.0533   30.0125 C   0  0  0  0  0  0  0  0  0  0  0  0
    1.8591   -6.8254   27.4685 N   0  0  0  0  0  0  0  0  0  0  0  0
   -0.2167  -12.1055   18.5568 C   0  0  0  0  0  0  0  0  0  0  0  0
   -2.0661  -10.6994   18.1916 C   0  0  0  0  0  0  0  0  0  0  0  0
    5.2703   -7.5691   27.1123 C   0  0  0  0  0  0  0  0  0  0  0  0
    1.6204   -9.9887   17.2935 C   0  0  0  0  0  0  0  0  0  0  0  0
    1.8931   -7.9265   16.2047 C   0  0  0  0  0  0  0  0  0  0  0  0
    2.4396   -9.0801   16.7132 C   0  0  0  0  0  0  0  0  0  0  0  0
   -0.2575   -8.6234   16.8582 C   0  0  0  0  0  0  0  0  0  0  0  0
    4.0614   -7.0367   27.0106 N   0  0  0  0  0  0  0  0  0  0  0  0
   -2.9133  -11.6279   18.7578 C   0  0  0  0  0  0  0  0  0  0  0  0
    4.5688  -10.1291   29.5758 C   0  0  0  0  0  0  0  0  0  0  0  0
    2.1008   -9.0410   29.1852 N   0  0  0  0  0  0  0  0  0  0  0  0
    3.4829  -10.5697   30.2091 N   0  0  0  0  0  0  0  0  0  0  0  0
   -0.3363   -6.1172   27.5628 C   0  0  0  0  0  0  0  0  0  0  0  0
    3.0331   -7.4400   27.6362 C   0  0  0  0  0  0  0  0  0  0  0  0
    5.4553   -8.5933   27.9644 C   0  0  0  0  0  0  0  0  0  0  0  0
   -2.3870  -12.8440   19.2512 C   0  0  0  0  0  0  0  0  0  0  0  0
    0.5331   -7.6964   16.2751 C   0  0  0  0  0  0  0  0  0  0  0  0
   -0.6740  -10.8737   18.0482 C   0  0  0  0  0  0  0  0  0  0  0  0
    5.6751  -10.5870   29.7637 O   0  0  0  0  0  0  0  0  0  0  0  0
    1.7612   -5.6483   26.7172 C   0  0  0  0  0  0  0  0  0  0  0  0
    0.2221   -9.8326   17.4055 C   0  0  0  0  0  0  0  0  0  0  0  0
    4.3850   -9.0730   28.6745 C   0  0  0  0  0  0  0  0  0  0  0  0
  1  7  4  0
  1 22  4  0
  2 17  4  0
  2 20  4  0
  2 28  4  0
  3  6  1  0
  3 19  1  0
  4 19  1  0
  4 26  1  0
  5 17  4  0
  5 18  4  0
  6 20  1  0
  6 26  1  0
  7 24  4  0
  8 15  4  0
  8 24  4  0
  9 14  4  0
  9 21  4  0
 10 12  4  0
 10 27  4  0
 11 12  4  0
 11 23  4  0
 13 23  4  0
 13 27  4  0
 14 20  4  0
 15 22  4  0
 16 18  4  0
 16 25  2  0
 16 28  4  0
 21 28  4  0
 24 27  1  0
M  END
$$$$

 Created by Python create_sdf_string function

 28 31  0  0  0  0  0  0  0  0999 V2000
   -1.0054  -13.0622   19.1198 C   0  0  0  0  0  0  0  0  0  0  0  0
    3.1478   -8.5360   28.5161 C   0  0  0  0  0  0  0  0  0  0  0  0
    0.5798   -7.1906   27.9330 C   0  0  0  0  0  0  0  0  0  0  0  0
    0.3978   -5.1561   26.6955 C   0  0  0  0  0  0  0  0  0  0  0  0
    2.3063  -10.0533   30.0125 C   0  0  0  0  0  0  0  0  0  0  0  0
    1.8591   -6.8254   27.4685 N   0  0  0  0  0  0  0  0  0  0  0  0
   -0.2167  -12.1055   18.5568 C   0  0  0  0  0  0  0  0  0  0  0  0
   -2.0661  -10.6994   18.1916 C   0  0  0  0  0  0  0  0  0  0  0  0
    5.2703   -7.5691   27.1123 C   0  0  0  0  0  0  0  0  0  0  0  0
    1.6204   -9.9887   17.2935 C   0  0  0  0  0  0  0  0  0  0  0  0
    1.8931   -7.9265   16.2047 C   0  0  0  0  0  0  0  0  0  0  0  0
    2.4396   -9.0801   16.7132 C   0  0  0  0  0  0  0  0  0  0  0  0
   -0.2575   -8.6234   16.8582 C   0  0  0  0  0  0  0  0  0  0  0  0
    4.0614   -7.0367   27.0106 N   0  0  0  0  0  0  0  0  0  0  0  0
   -2.9133  -11.6279   18.7578 C   0  0  0  0  0  0  0  0  0  0  0  0
    4.5688  -10.1291   29.5758 C   0  0  0  0  0  0  0  0  0  0  0  0
    2.1008   -9.0410   29.1852 N   0  0  0  0  0  0  0  0  0  0  0  0
    3.4829  -10.5697   30.2091 N   0  0  0  0  0  0  0  0  0  0  0  0
   -0.3363   -6.1172   27.5628 C   0  0  0  0  0  0  0  0  0  0  0  0
    3.0331   -7.4400   27.6362 C   0  0  0  0  0  0  0  0  0  0  0  0
    5.4553   -8.5933   27.9644 C   0  0  0  0  0  0  0  0  0  0  0  0
   -2.3870  -12.8440   19.2512 C   0  0  0  0  0  0  0  0  0  0  0  0
    0.5331   -7.6964   16.2751 C   0  0  0  0  0  0  0  0  0  0  0  0
   -0.6740  -10.8737   18.0482 C   0  0  0  0  0  0  0  0  0  0  0  0
    5.6751  -10.5870   29.7637 O   0  0  0  0  0  0  0  0  0  0  0  0
    1.7612   -5.6483   26.7172 C   0  0  0  0  0  0  0  0  0  0  0  0
    0.2221   -9.8326   17.4055 C   0  0  0  0  0  0  0  0  0  0  0  0
    4.3850   -9.0730   28.6745 C   0  0  0  0  0  0  0  0  0  0  0  0
  1  7  4  0
  1 22  4  0
  2 17  4  0
  2 20  4  0
  2 28  4  0
  3  6  1  0
  3 19  1  0
  4 19  1  0
  4 26  1  0
  5 17  4  0
  5 18  4  0
  6 20  1  0
  6 26  1  0
  7 24  4  0
  8 15  4  0
  8 24  4  0
  9 14  4  0
  9 21  4  0
 10 12  4  0
 10 27  4  0
 11 12  4  0
 11 23  4  0
 13 23  4  0
 13 27  4  0
 14 20  4  0
 15 22  4  0
 16 18  4  0
 16 25  2  0
 16 28  4  0
 21 28  4  0
 24 27  1  0
M  END
$$$$

 Created by Python create_sdf_string function

 28 31  0  0  0  0  0  0  0  0999 V2000
   -1.0054  -13.0622   19.1198 C   0  0  0  0  0  0  0  0  0  0  0  0
    3.1478   -8.5360   28.5161 C   0  0  0  0  0  0  0  0  0  0  0  0
    0.5798   -7.1906   27.9330 C   0  0  0  0  0  0  0  0  0  0  0  0
    0.3978   -5.1561   26.6955 C   0  0  0  0  0  0  0  0  0  0  0  0
    2.3063  -10.0533   30.0125 C   0  0  0  0  0  0  0  0  0  0  0  0
    1.8591   -6.8254   27.4685 N   0  0  0  0  0  0  0  0  0  0  0  0
   -0.2167  -12.1055   18.5568 C   0  0  0  0  0  0  0  0  0  0  0  0
   -2.0661  -10.6994   18.1916 C   0  0  0  0  0  0  0  0  0  0  0  0
    5.2703   -7.5691   27.1123 C   0  0  0  0  0  0  0  0  0  0  0  0
    1.6204   -9.9887   17.2935 C   0  0  0  0  0  0  0  0  0  0  0  0
    1.8931   -7.9265   16.2047 C   0  0  0  0  0  0  0  0  0  0  0  0
    2.4396   -9.0801   16.7132 C   0  0  0  0  0  0  0  0  0  0  0  0
   -0.2575   -8.6234   16.8582 C   0  0  0  0  0  0  0  0  0  0  0  0
    4.0614   -7.0367   27.0106 N   0  0  0  0  0  0  0  0  0  0  0  0
   -2.9133  -11.6279   18.7578 C   0  0  0  0  0  0  0  0  0  0  0  0
    4.5688  -10.1291   29.5758 C   0  0  0  0  0  0  0  0  0  0  0  0
    2.1008   -9.0410   29.1852 N   0  0  0  0  0  0  0  0  0  0  0  0
    3.4829  -10.5697   30.2091 N   0  0  0  0  0  0  0  0  0  0  0  0
   -0.3363   -6.1172   27.5628 C   0  0  0  0  0  0  0  0  0  0  0  0
    3.0331   -7.4400   27.6362 C   0  0  0  0  0  0  0  0  0  0  0  0
    5.4553   -8.5933   27.9644 C   0  0  0  0  0  0  0  0  0  0  0  0
   -2.3870  -12.8440   19.2512 C   0  0  0  0  0  0  0  0  0  0  0  0
    0.5331   -7.6964   16.2751 C   0  0  0  0  0  0  0  0  0  0  0  0
   -0.6740  -10.8737   18.0482 C   0  0  0  0  0  0  0  0  0  0  0  0
    5.6751  -10.5870   29.7637 O   0  0  0  0  0  0  0  0  0  0  0  0
    1.7612   -5.6483   26.7172 C   0  0  0  0  0  0  0  0  0  0  0  0
    0.2221   -9.8326   17.4055 C   0  0  0  0  0  0  0  0  0  0  0  0
    4.3850   -9.0730   28.6745 C   0  0  0  0  0  0  0  0  0  0  0  0
  1  7  4  0
  1 22  4  0
  2 17  4  0
  2 20  4  0
  2 28  4  0
  3  6  1  0
  3 19  1  0
  4 19  1  0
  4 26  1  0
  5 17  4  0
  5 18  4  0
  6 20  1  0
  6 26  1  0
  7 24  4  0
  8 15  4  0
  8 24  4  0
  9 14  4  0
  9 21  4  0
 10 12  4  0
 10 27  4  0
 11 12  4  0
 11 23  4  0
 13 23  4  0
 13 27  4  0
 14 20  4  0
 15 22  4  0
 16 18  4  0
 16 25  2  0
 16 28  4  0
 21 28  4  0
 24 27  1  0
M  END
$$$$

 Created by Python create_sdf_string function

 28 31  0  0  0  0  0  0  0  0999 V2000
   -1.0054  -13.0622   19.1198 C   0  0  0  0  0  0  0  0  0  0  0  0
    3.1478   -8.5360   28.5161 C   0  0  0  0  0  0  0  0  0  0  0  0
    0.5798   -7.1906   27.9330 C   0  0  0  0  0  0  0  0  0  0  0  0
    0.3978   -5.1561   26.6955 C   0  0  0  0  0  0  0  0  0  0  0  0
    2.3063  -10.0533   30.0125 C   0  0  0  0  0  0  0  0  0  0  0  0
    1.8591   -6.8254   27.4685 N   0  0  0  0  0  0  0  0  0  0  0  0
   -0.2167  -12.1055   18.5568 C   0  0  0  0  0  0  0  0  0  0  0  0
   -2.0661  -10.6994   18.1916 C   0  0  0  0  0  0  0  0  0  0  0  0
    5.2703   -7.5691   27.1123 C   0  0  0  0  0  0  0  0  0  0  0  0
    1.6204   -9.9887   17.2935 C   0  0  0  0  0  0  0  0  0  0  0  0
    1.8931   -7.9265   16.2047 C   0  0  0  0  0  0  0  0  0  0  0  0
    2.4396   -9.0801   16.7132 C   0  0  0  0  0  0  0  0  0  0  0  0
   -0.2575   -8.6234   16.8582 C   0  0  0  0  0  0  0  0  0  0  0  0
    4.0614   -7.0367   27.0106 N   0  0  0  0  0  0  0  0  0  0  0  0
   -2.9133  -11.6279   18.7578 C   0  0  0  0  0  0  0  0  0  0  0  0
    4.5688  -10.1291   29.5758 C   0  0  0  0  0  0  0  0  0  0  0  0
    2.1008   -9.0410   29.1852 N   0  0  0  0  0  0  0  0  0  0  0  0
    3.4829  -10.5697   30.2091 N   0  0  0  0  0  0  0  0  0  0  0  0
   -0.3363   -6.1172   27.5628 C   0  0  0  0  0  0  0  0  0  0  0  0
    3.0331   -7.4400   27.6362 C   0  0  0  0  0  0  0  0  0  0  0  0
    5.4553   -8.5933   27.9644 C   0  0  0  0  0  0  0  0  0  0  0  0
   -2.3870  -12.8440   19.2512 C   0  0  0  0  0  0  0  0  0  0  0  0
    0.5331   -7.6964   16.2751 C   0  0  0  0  0  0  0  0  0  0  0  0
   -0.6740  -10.8737   18.0482 C   0  0  0  0  0  0  0  0  0  0  0  0
    5.6751  -10.5870   29.7637 O   0  0  0  0  0  0  0  0  0  0  0  0
    1.7612   -5.6483   26.7172 C   0  0  0  0  0  0  0  0  0  0  0  0
    0.2221   -9.8326   17.4055 C   0  0  0  0  0  0  0  0  0  0  0  0
    4.3850   -9.0730   28.6745 C   0  0  0  0  0  0  0  0  0  0  0  0
  1  7  4  0
  1 22  4  0
  2 17  4  0
  2 20  4  0
  2 28  4  0
  3  6  1  0
  3 19  1  0
  4 19  1  0
  4 26  1  0
  5 17  4  0
  5 18  4  0
  6 20  1  0
  6 26  1  0
  7 24  4  0
  8 15  4  0
  8 24  4  0
  9 14  4  0
  9 21  4  0
 10 12  4  0
 10 27  4  0
 11 12  4  0
 11 23  4  0
 13 23  4  0
 13 27  4  0
 14 20  4  0
 15 22  4  0
 16 18  4  0
 16 25  2  0
 16 28  4  0
 21 28  4  0
 24 27  1  0
M  END
$$$$

 Created by Python create_sdf_string function

 28 31  0  0  0  0  0  0  0  0999 V2000
   -1.0054  -13.0622   19.1198 C   0  0  0  0  0  0  0  0  0  0  0  0
    3.1478   -8.5360   28.5161 C   0  0  0  0  0  0  0  0  0  0  0  0
    0.5798   -7.1906   27.9330 C   0  0  0  0  0  0  0  0  0  0  0  0
    0.3978   -5.1561   26.6955 C   0  0  0  0  0  0  0  0  0  0  0  0
    2.3063  -10.0533   30.0125 C   0  0  0  0  0  0  0  0  0  0  0  0
    1.8591   -6.8254   27.4685 N   0  0  0  0  0  0  0  0  0  0  0  0
   -0.2167  -12.1055   18.5568 C   0  0  0  0  0  0  0  0  0  0  0  0
   -2.0661  -10.6994   18.1916 C   0  0  0  0  0  0  0  0  0  0  0  0
    5.2703   -7.5691   27.1123 C   0  0  0  0  0  0  0  0  0  0  0  0
    1.6204   -9.9887   17.2935 C   0  0  0  0  0  0  0  0  0  0  0  0
    1.8931   -7.9265   16.2047 C   0  0  0  0  0  0  0  0  0  0  0  0
    2.4396   -9.0801   16.7132 C   0  0  0  0  0  0  0  0  0  0  0  0
   -0.2575   -8.6234   16.8582 C   0  0  0  0  0  0  0  0  0  0  0  0
    4.0614   -7.0367   27.0106 N   0  0  0  0  0  0  0  0  0  0  0  0
   -2.9133  -11.6279   18.7578 C   0  0  0  0  0  0  0  0  0  0  0  0
    4.5688  -10.1291   29.5758 C   0  0  0  0  0  0  0  0  0  0  0  0
    2.1008   -9.0410   29.1852 N   0  0  0  0  0  0  0  0  0  0  0  0
    3.4829  -10.5697   30.2091 N   0  0  0  0  0  0  0  0  0  0  0  0
   -0.3363   -6.1172   27.5628 C   0  0  0  0  0  0  0  0  0  0  0  0
    3.0331   -7.4400   27.6362 C   0  0  0  0  0  0  0  0  0  0  0  0
    5.4553   -8.5933   27.9644 C   0  0  0  0  0  0  0  0  0  0  0  0
   -2.3870  -12.8440   19.2512 C   0  0  0  0  0  0  0  0  0  0  0  0
    0.5331   -7.6964   16.2751 C   0  0  0  0  0  0  0  0  0  0  0  0
   -0.6740  -10.8737   18.0482 C   0  0  0  0  0  0  0  0  0  0  0  0
    5.6751  -10.5870   29.7637 O   0  0  0  0  0  0  0  0  0  0  0  0
    1.7612   -5.6483   26.7172 C   0  0  0  0  0  0  0  0  0  0  0  0
    0.2221   -9.8326   17.4055 C   0  0  0  0  0  0  0  0  0  0  0  0
    4.3850   -9.0730   28.6745 C   0  0  0  0  0  0  0  0  0  0  0  0
  1  7  4  0
  1 22  4  0
  2 17  4  0
  2 20  4  0
  2 28  4  0
  3  6  1  0
  3 19  1  0
  4 19  1  0
  4 26  1  0
  5 17  4  0
  5 18  4  0
  6 20  1  0
  6 26  1  0
  7 24  4  0
  8 15  4  0
  8 24  4  0
  9 14  4  0
  9 21  4  0
 10 12  4  0
 10 27  4  0
 11 12  4  0
 11 23  4  0
 13 23  4  0
 13 27  4  0
 14 20  4  0
 15 22  4  0
 16 18  4  0
 16 25  2  0
 16 28  4  0
 21 28  4  0
 24 27  1  0
M  END
$$$$

 Created by Python create_sdf_string function

 28 31  0  0  0  0  0  0  0  0999 V2000
   -1.0054  -13.0622   19.1198 C   0  0  0  0  0  0  0  0  0  0  0  0
    3.1478   -8.5360   28.5161 C   0  0  0  0  0  0  0  0  0  0  0  0
    0.5798   -7.1906   27.9330 C   0  0  0  0  0  0  0  0  0  0  0  0
    0.3978   -5.1561   26.6955 C   0  0  0  0  0  0  0  0  0  0  0  0
    2.3063  -10.0533   30.0125 C   0  0  0  0  0  0  0  0  0  0  0  0
    1.8591   -6.8254   27.4685 N   0  0  0  0  0  0  0  0  0  0  0  0
   -0.2167  -12.1055   18.5568 C   0  0  0  0  0  0  0  0  0  0  0  0
   -2.0661  -10.6994   18.1916 C   0  0  0  0  0  0  0  0  0  0  0  0
    5.2703   -7.5691   27.1123 C   0  0  0  0  0  0  0  0  0  0  0  0
    1.6204   -9.9887   17.2935 C   0  0  0  0  0  0  0  0  0  0  0  0
    1.8931   -7.9265   16.2047 C   0  0  0  0  0  0  0  0  0  0  0  0
    2.4396   -9.0801   16.7132 C   0  0  0  0  0  0  0  0  0  0  0  0
   -0.2575   -8.6234   16.8582 C   0  0  0  0  0  0  0  0  0  0  0  0
    4.0614   -7.0367   27.0106 N   0  0  0  0  0  0  0  0  0  0  0  0
   -2.9133  -11.6279   18.7578 C   0  0  0  0  0  0  0  0  0  0  0  0
    4.5688  -10.1291   29.5758 C   0  0  0  0  0  0  0  0  0  0  0  0
    2.1008   -9.0410   29.1852 N   0  0  0  0  0  0  0  0  0  0  0  0
    3.4829  -10.5697   30.2091 N   0  0  0  0  0  0  0  0  0  0  0  0
   -0.3363   -6.1172   27.5628 C   0  0  0  0  0  0  0  0  0  0  0  0
    3.0331   -7.4400   27.6362 C   0  0  0  0  0  0  0  0  0  0  0  0
    5.4553   -8.5933   27.9644 C   0  0  0  0  0  0  0  0  0  0  0  0
   -2.3870  -12.8440   19.2512 C   0  0  0  0  0  0  0  0  0  0  0  0
    0.5331   -7.6964   16.2751 C   0  0  0  0  0  0  0  0  0  0  0  0
   -0.6740  -10.8737   18.0482 C   0  0  0  0  0  0  0  0  0  0  0  0
    5.6751  -10.5870   29.7637 O   0  0  0  0  0  0  0  0  0  0  0  0
    1.7612   -5.6483   26.7172 C   0  0  0  0  0  0  0  0  0  0  0  0
    0.2221   -9.8326   17.4055 C   0  0  0  0  0  0  0  0  0  0  0  0
    4.3850   -9.0730   28.6745 C   0  0  0  0  0  0  0  0  0  0  0  0
  1  7  4  0
  1 22  4  0
  2 17  4  0
  2 20  4  0
  2 28  4  0
  3  6  1  0
  3 19  1  0
  4 19  1  0
  4 26  1  0
  5 17  4  0
  5 18  4  0
  6 20  1  0
  6 26  1  0
  7 24  4  0
  8 15  4  0
  8 24  4  0
  9 14  4  0
  9 21  4  0
 10 12  4  0
 10 27  4  0
 11 12  4  0
 11 23  4  0
 13 23  4  0
 13 27  4  0
 14 20  4  0
 15 22  4  0
 16 18  4  0
 16 25  2  0
 16 28  4  0
 21 28  4  0
 24 27  1  0
M  END
$$$$

 Created by Python create_sdf_string function

 28 31  0  0  0  0  0  0  0  0999 V2000
   -1.0054  -13.0622   19.1198 C   0  0  0  0  0  0  0  0  0  0  0  0
    3.1478   -8.5360   28.5161 C   0  0  0  0  0  0  0  0  0  0  0  0
    0.5798   -7.1906   27.9330 C   0  0  0  0  0  0  0  0  0  0  0  0
    0.3978   -5.1561   26.6955 C   0  0  0  0  0  0  0  0  0  0  0  0
    2.3063  -10.0533   30.0125 C   0  0  0  0  0  0  0  0  0  0  0  0
    1.8591   -6.8254   27.4685 N   0  0  0  0  0  0  0  0  0  0  0  0
   -0.2167  -12.1055   18.5568 C   0  0  0  0  0  0  0  0  0  0  0  0
   -2.0661  -10.6994   18.1916 C   0  0  0  0  0  0  0  0  0  0  0  0
    5.2703   -7.5691   27.1123 C   0  0  0  0  0  0  0  0  0  0  0  0
    1.6204   -9.9887   17.2935 C   0  0  0  0  0  0  0  0  0  0  0  0
    1.8931   -7.9265   16.2047 C   0  0  0  0  0  0  0  0  0  0  0  0
    2.4396   -9.0801   16.7132 C   0  0  0  0  0  0  0  0  0  0  0  0
   -0.2575   -8.6234   16.8582 C   0  0  0  0  0  0  0  0  0  0  0  0
    4.0614   -7.0367   27.0106 N   0  0  0  0  0  0  0  0  0  0  0  0
   -2.9133  -11.6279   18.7578 C   0  0  0  0  0  0  0  0  0  0  0  0
    4.5688  -10.1291   29.5758 C   0  0  0  0  0  0  0  0  0  0  0  0
    2.1008   -9.0410   29.1852 N   0  0  0  0  0  0  0  0  0  0  0  0
    3.4829  -10.5697   30.2091 N   0  0  0  0  0  0  0  0  0  0  0  0
   -0.3363   -6.1172   27.5628 C   0  0  0  0  0  0  0  0  0  0  0  0
    3.0331   -7.4400   27.6362 C   0  0  0  0  0  0  0  0  0  0  0  0
    5.4553   -8.5933   27.9644 C   0  0  0  0  0  0  0  0  0  0  0  0
   -2.3870  -12.8440   19.2512 C   0  0  0  0  0  0  0  0  0  0  0  0
    0.5331   -7.6964   16.2751 C   0  0  0  0  0  0  0  0  0  0  0  0
   -0.6740  -10.8737   18.0482 C   0  0  0  0  0  0  0  0  0  0  0  0
    5.6751  -10.5870   29.7637 O   0  0  0  0  0  0  0  0  0  0  0  0
    1.7612   -5.6483   26.7172 C   0  0  0  0  0  0  0  0  0  0  0  0
    0.2221   -9.8326   17.4055 C   0  0  0  0  0  0  0  0  0  0  0  0
    4.3850   -9.0730   28.6745 C   0  0  0  0  0  0  0  0  0  0  0  0
  1  7  4  0
  1 22  4  0
  2 17  4  0
  2 20  4  0
  2 28  4  0
  3  6  1  0
  3 19  1  0
  4 19  1  0
  4 26  1  0
  5 17  4  0
  5 18  4  0
  6 20  1  0
  6 26  1  0
  7 24  4  0
  8 15  4  0
  8 24  4  0
  9 14  4  0
  9 21  4  0
 10 12  4  0
 10 27  4  0
 11 12  4  0
 11 23  4  0
 13 23  4  0
 13 27  4  0
 14 20  4  0
 15 22  4  0
 16 18  4  0
 16 25  2  0
 16 28  4  0
 21 28  4  0
 24 27  1  0
M  END
$$$$

 Created by Python create_sdf_string function

 28 31  0  0  0  0  0  0  0  0999 V2000
   -1.0054  -13.0622   19.1198 C   0  0  0  0  0  0  0  0  0  0  0  0
    3.1478   -8.5360   28.5161 C   0  0  0  0  0  0  0  0  0  0  0  0
    0.5798   -7.1906   27.9330 C   0  0  0  0  0  0  0  0  0  0  0  0
    0.3978   -5.1561   26.6955 C   0  0  0  0  0  0  0  0  0  0  0  0
    2.3063  -10.0533   30.0125 C   0  0  0  0  0  0  0  0  0  0  0  0
    1.8591   -6.8254   27.4685 N   0  0  0  0  0  0  0  0  0  0  0  0
   -0.2167  -12.1055   18.5568 C   0  0  0  0  0  0  0  0  0  0  0  0
   -2.0661  -10.6994   18.1916 C   0  0  0  0  0  0  0  0  0  0  0  0
    5.2703   -7.5691   27.1123 C   0  0  0  0  0  0  0  0  0  0  0  0
    1.6204   -9.9887   17.2935 C   0  0  0  0  0  0  0  0  0  0  0  0
    1.8931   -7.9265   16.2047 C   0  0  0  0  0  0  0  0  0  0  0  0
    2.4396   -9.0801   16.7132 C   0  0  0  0  0  0  0  0  0  0  0  0
   -0.2575   -8.6234   16.8582 C   0  0  0  0  0  0  0  0  0  0  0  0
    4.0614   -7.0367   27.0106 N   0  0  0  0  0  0  0  0  0  0  0  0
   -2.9133  -11.6279   18.7578 C   0  0  0  0  0  0  0  0  0  0  0  0
    4.5688  -10.1291   29.5758 C   0  0  0  0  0  0  0  0  0  0  0  0
    2.1008   -9.0410   29.1852 N   0  0  0  0  0  0  0  0  0  0  0  0
    3.4829  -10.5697   30.2091 N   0  0  0  0  0  0  0  0  0  0  0  0
   -0.3363   -6.1172   27.5628 C   0  0  0  0  0  0  0  0  0  0  0  0
    3.0331   -7.4400   27.6362 C   0  0  0  0  0  0  0  0  0  0  0  0
    5.4553   -8.5933   27.9644 C   0  0  0  0  0  0  0  0  0  0  0  0
   -2.3870  -12.8440   19.2512 C   0  0  0  0  0  0  0  0  0  0  0  0
    0.5331   -7.6964   16.2751 C   0  0  0  0  0  0  0  0  0  0  0  0
   -0.6740  -10.8737   18.0482 C   0  0  0  0  0  0  0  0  0  0  0  0
    5.6751  -10.5870   29.7637 O   0  0  0  0  0  0  0  0  0  0  0  0
    1.7612   -5.6483   26.7172 C   0  0  0  0  0  0  0  0  0  0  0  0
    0.2221   -9.8326   17.4055 C   0  0  0  0  0  0  0  0  0  0  0  0
    4.3850   -9.0730   28.6745 C   0  0  0  0  0  0  0  0  0  0  0  0
  1  7  4  0
  1 22  4  0
  2 17  4  0
  2 20  4  0
  2 28  4  0
  3  6  1  0
  3 19  1  0
  4 19  1  0
  4 26  1  0
  5 17  4  0
  5 18  4  0
  6 20  1  0
  6 26  1  0
  7 24  4  0
  8 15  4  0
  8 24  4  0
  9 14  4  0
  9 21  4  0
 10 12  4  0
 10 27  4  0
 11 12  4  0
 11 23  4  0
 13 23  4  0
 13 27  4  0
 14 20  4  0
 15 22  4  0
 16 18  4  0
 16 25  2  0
 16 28  4  0
 21 28  4  0
 24 27  1  0
M  END
$$$$

 Created by Python create_sdf_string function

 28 31  0  0  0  0  0  0  0  0999 V2000
   -1.0054  -13.0622   19.1198 C   0  0  0  0  0  0  0  0  0  0  0  0
    3.1478   -8.5360   28.5161 C   0  0  0  0  0  0  0  0  0  0  0  0
    0.5798   -7.1906   27.9330 C   0  0  0  0  0  0  0  0  0  0  0  0
    0.3978   -5.1561   26.6955 C   0  0  0  0  0  0  0  0  0  0  0  0
    2.3063  -10.0533   30.0125 C   0  0  0  0  0  0  0  0  0  0  0  0
    1.8591   -6.8254   27.4685 N   0  0  0  0  0  0  0  0  0  0  0  0
   -0.2167  -12.1055   18.5568 C   0  0  0  0  0  0  0  0  0  0  0  0
   -2.0661  -10.6994   18.1916 C   0  0  0  0  0  0  0  0  0  0  0  0
    5.2703   -7.5691   27.1123 C   0  0  0  0  0  0  0  0  0  0  0  0
    1.6204   -9.9887   17.2935 C   0  0  0  0  0  0  0  0  0  0  0  0
    1.8931   -7.9265   16.2047 C   0  0  0  0  0  0  0  0  0  0  0  0
    2.4396   -9.0801   16.7132 C   0  0  0  0  0  0  0  0  0  0  0  0
   -0.2575   -8.6234   16.8582 C   0  0  0  0  0  0  0  0  0  0  0  0
    4.0614   -7.0367   27.0106 N   0  0  0  0  0  0  0  0  0  0  0  0
   -2.9133  -11.6279   18.7578 C   0  0  0  0  0  0  0  0  0  0  0  0
    4.5688  -10.1291   29.5758 C   0  0  0  0  0  0  0  0  0  0  0  0
    2.1008   -9.0410   29.1852 N   0  0  0  0  0  0  0  0  0  0  0  0
    3.4829  -10.5697   30.2091 N   0  0  0  0  0  0  0  0  0  0  0  0
   -0.3363   -6.1172   27.5628 C   0  0  0  0  0  0  0  0  0  0  0  0
    3.0331   -7.4400   27.6362 C   0  0  0  0  0  0  0  0  0  0  0  0
    5.4553   -8.5933   27.9644 C   0  0  0  0  0  0  0  0  0  0  0  0
   -2.3870  -12.8440   19.2512 C   0  0  0  0  0  0  0  0  0  0  0  0
    0.5331   -7.6964   16.2751 C   0  0  0  0  0  0  0  0  0  0  0  0
   -0.6740  -10.8737   18.0482 C   0  0  0  0  0  0  0  0  0  0  0  0
    5.6751  -10.5870   29.7637 O   0  0  0  0  0  0  0  0  0  0  0  0
    1.7612   -5.6483   26.7172 C   0  0  0  0  0  0  0  0  0  0  0  0
    0.2221   -9.8326   17.4055 C   0  0  0  0  0  0  0  0  0  0  0  0
    4.3850   -9.0730   28.6745 C   0  0  0  0  0  0  0  0  0  0  0  0
  1  7  4  0
  1 22  4  0
  2 17  4  0
  2 20  4  0
  2 28  4  0
  3  6  1  0
  3 19  1  0
  4 19  1  0
  4 26  1  0
  5 17  4  0
  5 18  4  0
  6 20  1  0
  6 26  1  0
  7 24  4  0
  8 15  4  0
  8 24  4  0
  9 14  4  0
  9 21  4  0
 10 12  4  0
 10 27  4  0
 11 12  4  0
 11 23  4  0
 13 23  4  0
 13 27  4  0
 14 20  4  0
 15 22  4  0
 16 18  4  0
 16 25  2  0
 16 28  4  0
 21 28  4  0
 24 27  1  0
M  END
$$$$

 Created by Python create_sdf_string function

 28 31  0  0  0  0  0  0  0  0999 V2000
   -1.0054  -13.0622   19.1198 C   0  0  0  0  0  0  0  0  0  0  0  0
    3.1478   -8.5360   28.5161 C   0  0  0  0  0  0  0  0  0  0  0  0
    0.5798   -7.1906   27.9330 C   0  0  0  0  0  0  0  0  0  0  0  0
    0.3978   -5.1561   26.6955 C   0  0  0  0  0  0  0  0  0  0  0  0
    2.3063  -10.0533   30.0125 C   0  0  0  0  0  0  0  0  0  0  0  0
    1.8591   -6.8254   27.4685 N   0  0  0  0  0  0  0  0  0  0  0  0
   -0.2167  -12.1055   18.5568 C   0  0  0  0  0  0  0  0  0  0  0  0
   -2.0661  -10.6994   18.1916 C   0  0  0  0  0  0  0  0  0  0  0  0
    5.2703   -7.5691   27.1123 C   0  0  0  0  0  0  0  0  0  0  0  0
    1.6204   -9.9887   17.2935 C   0  0  0  0  0  0  0  0  0  0  0  0
    1.8931   -7.9265   16.2047 C   0  0  0  0  0  0  0  0  0  0  0  0
    2.4396   -9.0801   16.7132 C   0  0  0  0  0  0  0  0  0  0  0  0
   -0.2575   -8.6234   16.8582 C   0  0  0  0  0  0  0  0  0  0  0  0
    4.0614   -7.0367   27.0106 N   0  0  0  0  0  0  0  0  0  0  0  0
   -2.9133  -11.6279   18.7578 C   0  0  0  0  0  0  0  0  0  0  0  0
    4.5688  -10.1291   29.5758 C   0  0  0  0  0  0  0  0  0  0  0  0
    2.1008   -9.0410   29.1852 N   0  0  0  0  0  0  0  0  0  0  0  0
    3.4829  -10.5697   30.2091 N   0  0  0  0  0  0  0  0  0  0  0  0
   -0.3363   -6.1172   27.5628 C   0  0  0  0  0  0  0  0  0  0  0  0
    3.0331   -7.4400   27.6362 C   0  0  0  0  0  0  0  0  0  0  0  0
    5.4553   -8.5933   27.9644 C   0  0  0  0  0  0  0  0  0  0  0  0
   -2.3870  -12.8440   19.2512 C   0  0  0  0  0  0  0  0  0  0  0  0
    0.5331   -7.6964   16.2751 C   0  0  0  0  0  0  0  0  0  0  0  0
   -0.6740  -10.8737   18.0482 C   0  0  0  0  0  0  0  0  0  0  0  0
    5.6751  -10.5870   29.7637 O   0  0  0  0  0  0  0  0  0  0  0  0
    1.7612   -5.6483   26.7172 C   0  0  0  0  0  0  0  0  0  0  0  0
    0.2221   -9.8326   17.4055 C   0  0  0  0  0  0  0  0  0  0  0  0
    4.3850   -9.0730   28.6745 C   0  0  0  0  0  0  0  0  0  0  0  0
  1  7  4  0
  1 22  4  0
  2 17  4  0
  2 20  4  0
  2 28  4  0
  3  6  1  0
  3 19  1  0
  4 19  1  0
  4 26  1  0
  5 17  4  0
  5 18  4  0
  6 20  1  0
  6 26  1  0
  7 24  4  0
  8 15  4  0
  8 24  4  0
  9 14  4  0
  9 21  4  0
 10 12  4  0
 10 27  4  0
 11 12  4  0
 11 23  4  0
 13 23  4  0
 13 27  4  0
 14 20  4  0
 15 22  4  0
 16 18  4  0
 16 25  2  0
 16 28  4  0
 21 28  4  0
 24 27  1  0
M  END
$$$$

 Created by Python create_sdf_string function

 28 31  0  0  0  0  0  0  0  0999 V2000
   -1.0054  -13.0622   19.1198 C   0  0  0  0  0  0  0  0  0  0  0  0
    3.1478   -8.5360   28.5161 C   0  0  0  0  0  0  0  0  0  0  0  0
    0.5798   -7.1906   27.9330 C   0  0  0  0  0  0  0  0  0  0  0  0
    0.3978   -5.1561   26.6955 C   0  0  0  0  0  0  0  0  0  0  0  0
    2.3063  -10.0533   30.0125 C   0  0  0  0  0  0  0  0  0  0  0  0
    1.8591   -6.8254   27.4685 N   0  0  0  0  0  0  0  0  0  0  0  0
   -0.2167  -12.1055   18.5568 C   0  0  0  0  0  0  0  0  0  0  0  0
   -2.0661  -10.6994   18.1916 C   0  0  0  0  0  0  0  0  0  0  0  0
    5.2703   -7.5691   27.1123 C   0  0  0  0  0  0  0  0  0  0  0  0
    1.6204   -9.9887   17.2935 C   0  0  0  0  0  0  0  0  0  0  0  0
    1.8931   -7.9265   16.2047 C   0  0  0  0  0  0  0  0  0  0  0  0
    2.4396   -9.0801   16.7132 C   0  0  0  0  0  0  0  0  0  0  0  0
   -0.2575   -8.6234   16.8582 C   0  0  0  0  0  0  0  0  0  0  0  0
    4.0614   -7.0367   27.0106 N   0  0  0  0  0  0  0  0  0  0  0  0
   -2.9133  -11.6279   18.7578 C   0  0  0  0  0  0  0  0  0  0  0  0
    4.5688  -10.1291   29.5758 C   0  0  0  0  0  0  0  0  0  0  0  0
    2.1008   -9.0410   29.1852 N   0  0  0  0  0  0  0  0  0  0  0  0
    3.4829  -10.5697   30.2091 N   0  0  0  0  0  0  0  0  0  0  0  0
   -0.3363   -6.1172   27.5628 C   0  0  0  0  0  0  0  0  0  0  0  0
    3.0331   -7.4400   27.6362 C   0  0  0  0  0  0  0  0  0  0  0  0
    5.4553   -8.5933   27.9644 C   0  0  0  0  0  0  0  0  0  0  0  0
   -2.3870  -12.8440   19.2512 C   0  0  0  0  0  0  0  0  0  0  0  0
    0.5331   -7.6964   16.2751 C   0  0  0  0  0  0  0  0  0  0  0  0
   -0.6740  -10.8737   18.0482 C   0  0  0  0  0  0  0  0  0  0  0  0
    5.6751  -10.5870   29.7637 O   0  0  0  0  0  0  0  0  0  0  0  0
    1.7612   -5.6483   26.7172 C   0  0  0  0  0  0  0  0  0  0  0  0
    0.2221   -9.8326   17.4055 C   0  0  0  0  0  0  0  0  0  0  0  0
    4.3850   -9.0730   28.6745 C   0  0  0  0  0  0  0  0  0  0  0  0
  1  7  4  0
  1 22  4  0
  2 17  4  0
  2 20  4  0
  2 28  4  0
  3  6  1  0
  3 19  1  0
  4 19  1  0
  4 26  1  0
  5 17  4  0
  5 18  4  0
  6 20  1  0
  6 26  1  0
  7 24  4  0
  8 15  4  0
  8 24  4  0
  9 14  4  0
  9 21  4  0
 10 12  4  0
 10 27  4  0
 11 12  4  0
 11 23  4  0
 13 23  4  0
 13 27  4  0
 14 20  4  0
 15 22  4  0
 16 18  4  0
 16 25  2  0
 16 28  4  0
 21 28  4  0
 24 27  1  0
M  END
$$$$

 Created by Python create_sdf_string function

 28 31  0  0  0  0  0  0  0  0999 V2000
   -1.0054  -13.0622   19.1198 C   0  0  0  0  0  0  0  0  0  0  0  0
    3.1478   -8.5360   28.5161 C   0  0  0  0  0  0  0  0  0  0  0  0
    0.5798   -7.1906   27.9330 C   0  0  0  0  0  0  0  0  0  0  0  0
    0.3978   -5.1561   26.6955 C   0  0  0  0  0  0  0  0  0  0  0  0
    2.3063  -10.0533   30.0125 C   0  0  0  0  0  0  0  0  0  0  0  0
    1.8591   -6.8254   27.4685 N   0  0  0  0  0  0  0  0  0  0  0  0
   -0.2167  -12.1055   18.5568 C   0  0  0  0  0  0  0  0  0  0  0  0
   -2.0661  -10.6994   18.1916 C   0  0  0  0  0  0  0  0  0  0  0  0
    5.2703   -7.5691   27.1123 C   0  0  0  0  0  0  0  0  0  0  0  0
    1.6204   -9.9887   17.2935 C   0  0  0  0  0  0  0  0  0  0  0  0
    1.8931   -7.9265   16.2047 C   0  0  0  0  0  0  0  0  0  0  0  0
    2.4396   -9.0801   16.7132 C   0  0  0  0  0  0  0  0  0  0  0  0
   -0.2575   -8.6234   16.8582 C   0  0  0  0  0  0  0  0  0  0  0  0
    4.0614   -7.0367   27.0106 N   0  0  0  0  0  0  0  0  0  0  0  0
   -2.9133  -11.6279   18.7578 C   0  0  0  0  0  0  0  0  0  0  0  0
    4.5688  -10.1291   29.5758 C   0  0  0  0  0  0  0  0  0  0  0  0
    2.1008   -9.0410   29.1852 N   0  0  0  0  0  0  0  0  0  0  0  0
    3.4829  -10.5697   30.2091 N   0  0  0  0  0  0  0  0  0  0  0  0
   -0.3363   -6.1172   27.5628 C   0  0  0  0  0  0  0  0  0  0  0  0
    3.0331   -7.4400   27.6362 C   0  0  0  0  0  0  0  0  0  0  0  0
    5.4553   -8.5933   27.9644 C   0  0  0  0  0  0  0  0  0  0  0  0
   -2.3870  -12.8440   19.2512 C   0  0  0  0  0  0  0  0  0  0  0  0
    0.5331   -7.6964   16.2751 C   0  0  0  0  0  0  0  0  0  0  0  0
   -0.6740  -10.8737   18.0482 C   0  0  0  0  0  0  0  0  0  0  0  0
    5.6751  -10.5870   29.7637 O   0  0  0  0  0  0  0  0  0  0  0  0
    1.7612   -5.6483   26.7172 C   0  0  0  0  0  0  0  0  0  0  0  0
    0.2221   -9.8326   17.4055 C   0  0  0  0  0  0  0  0  0  0  0  0
    4.3850   -9.0730   28.6745 C   0  0  0  0  0  0  0  0  0  0  0  0
  1  7  4  0
  1 22  4  0
  2 17  4  0
  2 20  4  0
  2 28  4  0
  3  6  1  0
  3 19  1  0
  4 19  1  0
  4 26  1  0
  5 17  4  0
  5 18  4  0
  6 20  1  0
  6 26  1  0
  7 24  4  0
  8 15  4  0
  8 24  4  0
  9 14  4  0
  9 21  4  0
 10 12  4  0
 10 27  4  0
 11 12  4  0
 11 23  4  0
 13 23  4  0
 13 27  4  0
 14 20  4  0
 15 22  4  0
 16 18  4  0
 16 25  2  0
 16 28  4  0
 21 28  4  0
 24 27  1  0
M  END
$$$$

 Created by Python create_sdf_string function

 28 31  0  0  0  0  0  0  0  0999 V2000
   -1.0054  -13.0622   19.1198 C   0  0  0  0  0  0  0  0  0  0  0  0
    3.1478   -8.5360   28.5161 C   0  0  0  0  0  0  0  0  0  0  0  0
    0.5798   -7.1906   27.9330 C   0  0  0  0  0  0  0  0  0  0  0  0
    0.3978   -5.1561   26.6955 C   0  0  0  0  0  0  0  0  0  0  0  0
    2.3063  -10.0533   30.0125 C   0  0  0  0  0  0  0  0  0  0  0  0
    1.8591   -6.8254   27.4685 N   0  0  0  0  0  0  0  0  0  0  0  0
   -0.2167  -12.1055   18.5568 C   0  0  0  0  0  0  0  0  0  0  0  0
   -2.0661  -10.6994   18.1916 C   0  0  0  0  0  0  0  0  0  0  0  0
    5.2703   -7.5691   27.1123 C   0  0  0  0  0  0  0  0  0  0  0  0
    1.6204   -9.9887   17.2935 C   0  0  0  0  0  0  0  0  0  0  0  0
    1.8931   -7.9265   16.2047 C   0  0  0  0  0  0  0  0  0  0  0  0
    2.4396   -9.0801   16.7132 C   0  0  0  0  0  0  0  0  0  0  0  0
   -0.2575   -8.6234   16.8582 C   0  0  0  0  0  0  0  0  0  0  0  0
    4.0614   -7.0367   27.0106 N   0  0  0  0  0  0  0  0  0  0  0  0
   -2.9133  -11.6279   18.7578 C   0  0  0  0  0  0  0  0  0  0  0  0
    4.5688  -10.1291   29.5758 C   0  0  0  0  0  0  0  0  0  0  0  0
    2.1008   -9.0410   29.1852 N   0  0  0  0  0  0  0  0  0  0  0  0
    3.4829  -10.5697   30.2091 N   0  0  0  0  0  0  0  0  0  0  0  0
   -0.3363   -6.1172   27.5628 C   0  0  0  0  0  0  0  0  0  0  0  0
    3.0331   -7.4400   27.6362 C   0  0  0  0  0  0  0  0  0  0  0  0
    5.4553   -8.5933   27.9644 C   0  0  0  0  0  0  0  0  0  0  0  0
   -2.3870  -12.8440   19.2512 C   0  0  0  0  0  0  0  0  0  0  0  0
    0.5331   -7.6964   16.2751 C   0  0  0  0  0  0  0  0  0  0  0  0
   -0.6740  -10.8737   18.0482 C   0  0  0  0  0  0  0  0  0  0  0  0
    5.6751  -10.5870   29.7637 O   0  0  0  0  0  0  0  0  0  0  0  0
    1.7612   -5.6483   26.7172 C   0  0  0  0  0  0  0  0  0  0  0  0
    0.2221   -9.8326   17.4055 C   0  0  0  0  0  0  0  0  0  0  0  0
    4.3850   -9.0730   28.6745 C   0  0  0  0  0  0  0  0  0  0  0  0
  1  7  4  0
  1 22  4  0
  2 17  4  0
  2 20  4  0
  2 28  4  0
  3  6  1  0
  3 19  1  0
  4 19  1  0
  4 26  1  0
  5 17  4  0
  5 18  4  0
  6 20  1  0
  6 26  1  0
  7 24  4  0
  8 15  4  0
  8 24  4  0
  9 14  4  0
  9 21  4  0
 10 12  4  0
 10 27  4  0
 11 12  4  0
 11 23  4  0
 13 23  4  0
 13 27  4  0
 14 20  4  0
 15 22  4  0
 16 18  4  0
 16 25  2  0
 16 28  4  0
 21 28  4  0
 24 27  1  0
M  END
$$$$

 Created by Python create_sdf_string function

 28 31  0  0  0  0  0  0  0  0999 V2000
   -1.0054  -13.0622   19.1198 C   0  0  0  0  0  0  0  0  0  0  0  0
    3.1478   -8.5360   28.5161 C   0  0  0  0  0  0  0  0  0  0  0  0
    0.5798   -7.1906   27.9330 C   0  0  0  0  0  0  0  0  0  0  0  0
    0.3978   -5.1561   26.6955 C   0  0  0  0  0  0  0  0  0  0  0  0
    2.3063  -10.0533   30.0125 C   0  0  0  0  0  0  0  0  0  0  0  0
    1.8591   -6.8254   27.4685 N   0  0  0  0  0  0  0  0  0  0  0  0
   -0.2167  -12.1055   18.5568 C   0  0  0  0  0  0  0  0  0  0  0  0
   -2.0661  -10.6994   18.1916 C   0  0  0  0  0  0  0  0  0  0  0  0
    5.2703   -7.5691   27.1123 C   0  0  0  0  0  0  0  0  0  0  0  0
    1.6204   -9.9887   17.2935 C   0  0  0  0  0  0  0  0  0  0  0  0
    1.8931   -7.9265   16.2047 C   0  0  0  0  0  0  0  0  0  0  0  0
    2.4396   -9.0801   16.7132 C   0  0  0  0  0  0  0  0  0  0  0  0
   -0.2575   -8.6234   16.8582 C   0  0  0  0  0  0  0  0  0  0  0  0
    4.0614   -7.0367   27.0106 N   0  0  0  0  0  0  0  0  0  0  0  0
   -2.9133  -11.6279   18.7578 C   0  0  0  0  0  0  0  0  0  0  0  0
    4.5688  -10.1291   29.5758 C   0  0  0  0  0  0  0  0  0  0  0  0
    2.1008   -9.0410   29.1852 N   0  0  0  0  0  0  0  0  0  0  0  0
    3.4829  -10.5697   30.2091 N   0  0  0  0  0  0  0  0  0  0  0  0
   -0.3363   -6.1172   27.5628 C   0  0  0  0  0  0  0  0  0  0  0  0
    3.0331   -7.4400   27.6362 C   0  0  0  0  0  0  0  0  0  0  0  0
    5.4553   -8.5933   27.9644 C   0  0  0  0  0  0  0  0  0  0  0  0
   -2.3870  -12.8440   19.2512 C   0  0  0  0  0  0  0  0  0  0  0  0
    0.5331   -7.6964   16.2751 C   0  0  0  0  0  0  0  0  0  0  0  0
   -0.6740  -10.8737   18.0482 C   0  0  0  0  0  0  0  0  0  0  0  0
    5.6751  -10.5870   29.7637 O   0  0  0  0  0  0  0  0  0  0  0  0
    1.7612   -5.6483   26.7172 C   0  0  0  0  0  0  0  0  0  0  0  0
    0.2221   -9.8326   17.4055 C   0  0  0  0  0  0  0  0  0  0  0  0
    4.3850   -9.0730   28.6745 C   0  0  0  0  0  0  0  0  0  0  0  0
  1  7  4  0
  1 22  4  0
  2 17  4  0
  2 20  4  0
  2 28  4  0
  3  6  1  0
  3 19  1  0
  4 19  1  0
  4 26  1  0
  5 17  4  0
  5 18  4  0
  6 20  1  0
  6 26  1  0
  7 24  4  0
  8 15  4  0
  8 24  4  0
  9 14  4  0
  9 21  4  0
 10 12  4  0
 10 27  4  0
 11 12  4  0
 11 23  4  0
 13 23  4  0
 13 27  4  0
 14 20  4  0
 15 22  4  0
 16 18  4  0
 16 25  2  0
 16 28  4  0
 21 28  4  0
 24 27  1  0
M  END
$$$$

 Created by Python create_sdf_string function

 28 31  0  0  0  0  0  0  0  0999 V2000
   -1.0054  -13.0622   19.1198 C   0  0  0  0  0  0  0  0  0  0  0  0
    3.1478   -8.5360   28.5161 C   0  0  0  0  0  0  0  0  0  0  0  0
    0.5798   -7.1906   27.9330 C   0  0  0  0  0  0  0  0  0  0  0  0
    0.3978   -5.1561   26.6955 C   0  0  0  0  0  0  0  0  0  0  0  0
    2.3063  -10.0533   30.0125 C   0  0  0  0  0  0  0  0  0  0  0  0
    1.8591   -6.8254   27.4685 N   0  0  0  0  0  0  0  0  0  0  0  0
   -0.2167  -12.1055   18.5568 C   0  0  0  0  0  0  0  0  0  0  0  0
   -2.0661  -10.6994   18.1916 C   0  0  0  0  0  0  0  0  0  0  0  0
    5.2703   -7.5691   27.1123 C   0  0  0  0  0  0  0  0  0  0  0  0
    1.6204   -9.9887   17.2935 C   0  0  0  0  0  0  0  0  0  0  0  0
    1.8931   -7.9265   16.2047 C   0  0  0  0  0  0  0  0  0  0  0  0
    2.4396   -9.0801   16.7132 C   0  0  0  0  0  0  0  0  0  0  0  0
   -0.2575   -8.6234   16.8582 C   0  0  0  0  0  0  0  0  0  0  0  0
    4.0614   -7.0367   27.0106 N   0  0  0  0  0  0  0  0  0  0  0  0
   -2.9133  -11.6279   18.7578 C   0  0  0  0  0  0  0  0  0  0  0  0
    4.5688  -10.1291   29.5758 C   0  0  0  0  0  0  0  0  0  0  0  0
    2.1008   -9.0410   29.1852 N   0  0  0  0  0  0  0  0  0  0  0  0
    3.4829  -10.5697   30.2091 N   0  0  0  0  0  0  0  0  0  0  0  0
   -0.3363   -6.1172   27.5628 C   0  0  0  0  0  0  0  0  0  0  0  0
    3.0331   -7.4400   27.6362 C   0  0  0  0  0  0  0  0  0  0  0  0
    5.4553   -8.5933   27.9644 C   0  0  0  0  0  0  0  0  0  0  0  0
   -2.3870  -12.8440   19.2512 C   0  0  0  0  0  0  0  0  0  0  0  0
    0.5331   -7.6964   16.2751 C   0  0  0  0  0  0  0  0  0  0  0  0
   -0.6740  -10.8737   18.0482 C   0  0  0  0  0  0  0  0  0  0  0  0
    5.6751  -10.5870   29.7637 O   0  0  0  0  0  0  0  0  0  0  0  0
    1.7612   -5.6483   26.7172 C   0  0  0  0  0  0  0  0  0  0  0  0
    0.2221   -9.8326   17.4055 C   0  0  0  0  0  0  0  0  0  0  0  0
    4.3850   -9.0730   28.6745 C   0  0  0  0  0  0  0  0  0  0  0  0
  1  7  4  0
  1 22  4  0
  2 17  4  0
  2 20  4  0
  2 28  4  0
  3  6  1  0
  3 19  1  0
  4 19  1  0
  4 26  1  0
  5 17  4  0
  5 18  4  0
  6 20  1  0
  6 26  1  0
  7 24  4  0
  8 15  4  0
  8 24  4  0
  9 14  4  0
  9 21  4  0
 10 12  4  0
 10 27  4  0
 11 12  4  0
 11 23  4  0
 13 23  4  0
 13 27  4  0
 14 20  4  0
 15 22  4  0
 16 18  4  0
 16 25  2  0
 16 28  4  0
 21 28  4  0
 24 27  1  0
M  END
$$$$

 Created by Python create_sdf_string function

 28 31  0  0  0  0  0  0  0  0999 V2000
   -1.0054  -13.0622   19.1198 C   0  0  0  0  0  0  0  0  0  0  0  0
    3.1478   -8.5360   28.5161 C   0  0  0  0  0  0  0  0  0  0  0  0
    0.5798   -7.1906   27.9330 C   0  0  0  0  0  0  0  0  0  0  0  0
    0.3978   -5.1561   26.6955 C   0  0  0  0  0  0  0  0  0  0  0  0
    2.3063  -10.0533   30.0125 C   0  0  0  0  0  0  0  0  0  0  0  0
    1.8591   -6.8254   27.4685 N   0  0  0  0  0  0  0  0  0  0  0  0
   -0.2167  -12.1055   18.5568 C   0  0  0  0  0  0  0  0  0  0  0  0
   -2.0661  -10.6994   18.1916 C   0  0  0  0  0  0  0  0  0  0  0  0
    5.2703   -7.5691   27.1123 C   0  0  0  0  0  0  0  0  0  0  0  0
    1.6204   -9.9887   17.2935 C   0  0  0  0  0  0  0  0  0  0  0  0
    1.8931   -7.9265   16.2047 C   0  0  0  0  0  0  0  0  0  0  0  0
    2.4396   -9.0801   16.7132 C   0  0  0  0  0  0  0  0  0  0  0  0
   -0.2575   -8.6234   16.8582 C   0  0  0  0  0  0  0  0  0  0  0  0
    4.0614   -7.0367   27.0106 N   0  0  0  0  0  0  0  0  0  0  0  0
   -2.9133  -11.6279   18.7578 C   0  0  0  0  0  0  0  0  0  0  0  0
    4.5688  -10.1291   29.5758 C   0  0  0  0  0  0  0  0  0  0  0  0
    2.1008   -9.0410   29.1852 N   0  0  0  0  0  0  0  0  0  0  0  0
    3.4829  -10.5697   30.2091 N   0  0  0  0  0  0  0  0  0  0  0  0
   -0.3363   -6.1172   27.5628 C   0  0  0  0  0  0  0  0  0  0  0  0
    3.0331   -7.4400   27.6362 C   0  0  0  0  0  0  0  0  0  0  0  0
    5.4553   -8.5933   27.9644 C   0  0  0  0  0  0  0  0  0  0  0  0
   -2.3870  -12.8440   19.2512 C   0  0  0  0  0  0  0  0  0  0  0  0
    0.5331   -7.6964   16.2751 C   0  0  0  0  0  0  0  0  0  0  0  0
   -0.6740  -10.8737   18.0482 C   0  0  0  0  0  0  0  0  0  0  0  0
    5.6751  -10.5870   29.7637 O   0  0  0  0  0  0  0  0  0  0  0  0
    1.7612   -5.6483   26.7172 C   0  0  0  0  0  0  0  0  0  0  0  0
    0.2221   -9.8326   17.4055 C   0  0  0  0  0  0  0  0  0  0  0  0
    4.3850   -9.0730   28.6745 C   0  0  0  0  0  0  0  0  0  0  0  0
  1  7  4  0
  1 22  4  0
  2 17  4  0
  2 20  4  0
  2 28  4  0
  3  6  1  0
  3 19  1  0
  4 19  1  0
  4 26  1  0
  5 17  4  0
  5 18  4  0
  6 20  1  0
  6 26  1  0
  7 24  4  0
  8 15  4  0
  8 24  4  0
  9 14  4  0
  9 21  4  0
 10 12  4  0
 10 27  4  0
 11 12  4  0
 11 23  4  0
 13 23  4  0
 13 27  4  0
 14 20  4  0
 15 22  4  0
 16 18  4  0
 16 25  2  0
 16 28  4  0
 21 28  4  0
 24 27  1  0
M  END
$$$$

 Created by Python create_sdf_string function

 28 31  0  0  0  0  0  0  0  0999 V2000
   -1.0054  -13.0622   19.1198 C   0  0  0  0  0  0  0  0  0  0  0  0
    3.1478   -8.5360   28.5161 C   0  0  0  0  0  0  0  0  0  0  0  0
    0.5798   -7.1906   27.9330 C   0  0  0  0  0  0  0  0  0  0  0  0
    0.3978   -5.1561   26.6955 C   0  0  0  0  0  0  0  0  0  0  0  0
    2.3063  -10.0533   30.0125 C   0  0  0  0  0  0  0  0  0  0  0  0
    1.8591   -6.8254   27.4685 N   0  0  0  0  0  0  0  0  0  0  0  0
   -0.2167  -12.1055   18.5568 C   0  0  0  0  0  0  0  0  0  0  0  0
   -2.0661  -10.6994   18.1916 C   0  0  0  0  0  0  0  0  0  0  0  0
    5.2703   -7.5691   27.1123 C   0  0  0  0  0  0  0  0  0  0  0  0
    1.6204   -9.9887   17.2935 C   0  0  0  0  0  0  0  0  0  0  0  0
    1.8931   -7.9265   16.2047 C   0  0  0  0  0  0  0  0  0  0  0  0
    2.4396   -9.0801   16.7132 C   0  0  0  0  0  0  0  0  0  0  0  0
   -0.2575   -8.6234   16.8582 C   0  0  0  0  0  0  0  0  0  0  0  0
    4.0614   -7.0367   27.0106 N   0  0  0  0  0  0  0  0  0  0  0  0
   -2.9133  -11.6279   18.7578 C   0  0  0  0  0  0  0  0  0  0  0  0
    4.5688  -10.1291   29.5758 C   0  0  0  0  0  0  0  0  0  0  0  0
    2.1008   -9.0410   29.1852 N   0  0  0  0  0  0  0  0  0  0  0  0
    3.4829  -10.5697   30.2091 N   0  0  0  0  0  0  0  0  0  0  0  0
   -0.3363   -6.1172   27.5628 C   0  0  0  0  0  0  0  0  0  0  0  0
    3.0331   -7.4400   27.6362 C   0  0  0  0  0  0  0  0  0  0  0  0
    5.4553   -8.5933   27.9644 C   0  0  0  0  0  0  0  0  0  0  0  0
   -2.3870  -12.8440   19.2512 C   0  0  0  0  0  0  0  0  0  0  0  0
    0.5331   -7.6964   16.2751 C   0  0  0  0  0  0  0  0  0  0  0  0
   -0.6740  -10.8737   18.0482 C   0  0  0  0  0  0  0  0  0  0  0  0
    5.6751  -10.5870   29.7637 O   0  0  0  0  0  0  0  0  0  0  0  0
    1.7612   -5.6483   26.7172 C   0  0  0  0  0  0  0  0  0  0  0  0
    0.2221   -9.8326   17.4055 C   0  0  0  0  0  0  0  0  0  0  0  0
    4.3850   -9.0730   28.6745 C   0  0  0  0  0  0  0  0  0  0  0  0
  1  7  4  0
  1 22  4  0
  2 17  4  0
  2 20  4  0
  2 28  4  0
  3  6  1  0
  3 19  1  0
  4 19  1  0
  4 26  1  0
  5 17  4  0
  5 18  4  0
  6 20  1  0
  6 26  1  0
  7 24  4  0
  8 15  4  0
  8 24  4  0
  9 14  4  0
  9 21  4  0
 10 12  4  0
 10 27  4  0
 11 12  4  0
 11 23  4  0
 13 23  4  0
 13 27  4  0
 14 20  4  0
 15 22  4  0
 16 18  4  0
 16 25  2  0
 16 28  4  0
 21 28  4  0
 24 27  1  0
M  END
$$$$

 Created by Python create_sdf_string function

 28 31  0  0  0  0  0  0  0  0999 V2000
   -1.0054  -13.0622   19.1198 C   0  0  0  0  0  0  0  0  0  0  0  0
    3.1478   -8.5360   28.5161 C   0  0  0  0  0  0  0  0  0  0  0  0
    0.5798   -7.1906   27.9330 C   0  0  0  0  0  0  0  0  0  0  0  0
    0.3978   -5.1561   26.6955 C   0  0  0  0  0  0  0  0  0  0  0  0
    2.3063  -10.0533   30.0125 C   0  0  0  0  0  0  0  0  0  0  0  0
    1.8591   -6.8254   27.4685 N   0  0  0  0  0  0  0  0  0  0  0  0
   -0.2167  -12.1055   18.5568 C   0  0  0  0  0  0  0  0  0  0  0  0
   -2.0661  -10.6994   18.1916 C   0  0  0  0  0  0  0  0  0  0  0  0
    5.2703   -7.5691   27.1123 C   0  0  0  0  0  0  0  0  0  0  0  0
    1.6204   -9.9887   17.2935 C   0  0  0  0  0  0  0  0  0  0  0  0
    1.8931   -7.9265   16.2047 C   0  0  0  0  0  0  0  0  0  0  0  0
    2.4396   -9.0801   16.7132 C   0  0  0  0  0  0  0  0  0  0  0  0
   -0.2575   -8.6234   16.8582 C   0  0  0  0  0  0  0  0  0  0  0  0
    4.0614   -7.0367   27.0106 N   0  0  0  0  0  0  0  0  0  0  0  0
   -2.9133  -11.6279   18.7578 C   0  0  0  0  0  0  0  0  0  0  0  0
    4.5688  -10.1291   29.5758 C   0  0  0  0  0  0  0  0  0  0  0  0
    2.1008   -9.0410   29.1852 N   0  0  0  0  0  0  0  0  0  0  0  0
    3.4829  -10.5697   30.2091 N   0  0  0  0  0  0  0  0  0  0  0  0
   -0.3363   -6.1172   27.5628 C   0  0  0  0  0  0  0  0  0  0  0  0
    3.0331   -7.4400   27.6362 C   0  0  0  0  0  0  0  0  0  0  0  0
    5.4553   -8.5933   27.9644 C   0  0  0  0  0  0  0  0  0  0  0  0
   -2.3870  -12.8440   19.2512 C   0  0  0  0  0  0  0  0  0  0  0  0
    0.5331   -7.6964   16.2751 C   0  0  0  0  0  0  0  0  0  0  0  0
   -0.6740  -10.8737   18.0482 C   0  0  0  0  0  0  0  0  0  0  0  0
    5.6751  -10.5870   29.7637 O   0  0  0  0  0  0  0  0  0  0  0  0
    1.7612   -5.6483   26.7172 C   0  0  0  0  0  0  0  0  0  0  0  0
    0.2221   -9.8326   17.4055 C   0  0  0  0  0  0  0  0  0  0  0  0
    4.3850   -9.0730   28.6745 C   0  0  0  0  0  0  0  0  0  0  0  0
  1  7  4  0
  1 22  4  0
  2 17  4  0
  2 20  4  0
  2 28  4  0
  3  6  1  0
  3 19  1  0
  4 19  1  0
  4 26  1  0
  5 17  4  0
  5 18  4  0
  6 20  1  0
  6 26  1  0
  7 24  4  0
  8 15  4  0
  8 24  4  0
  9 14  4  0
  9 21  4  0
 10 12  4  0
 10 27  4  0
 11 12  4  0
 11 23  4  0
 13 23  4  0
 13 27  4  0
 14 20  4  0
 15 22  4  0
 16 18  4  0
 16 25  2  0
 16 28  4  0
 21 28  4  0
 24 27  1  0
M  END
$$$$

 Created by Python create_sdf_string function

 28 31  0  0  0  0  0  0  0  0999 V2000
   -1.0054  -13.0622   19.1198 C   0  0  0  0  0  0  0  0  0  0  0  0
    3.1478   -8.5360   28.5161 C   0  0  0  0  0  0  0  0  0  0  0  0
    0.5798   -7.1906   27.9330 C   0  0  0  0  0  0  0  0  0  0  0  0
    0.3978   -5.1561   26.6955 C   0  0  0  0  0  0  0  0  0  0  0  0
    2.3063  -10.0533   30.0125 C   0  0  0  0  0  0  0  0  0  0  0  0
    1.8591   -6.8254   27.4685 N   0  0  0  0  0  0  0  0  0  0  0  0
   -0.2167  -12.1055   18.5568 C   0  0  0  0  0  0  0  0  0  0  0  0
   -2.0661  -10.6994   18.1916 C   0  0  0  0  0  0  0  0  0  0  0  0
    5.2703   -7.5691   27.1123 C   0  0  0  0  0  0  0  0  0  0  0  0
    1.6204   -9.9887   17.2935 C   0  0  0  0  0  0  0  0  0  0  0  0
    1.8931   -7.9265   16.2047 C   0  0  0  0  0  0  0  0  0  0  0  0
    2.4396   -9.0801   16.7132 C   0  0  0  0  0  0  0  0  0  0  0  0
   -0.2575   -8.6234   16.8582 C   0  0  0  0  0  0  0  0  0  0  0  0
    4.0614   -7.0367   27.0106 N   0  0  0  0  0  0  0  0  0  0  0  0
   -2.9133  -11.6279   18.7578 C   0  0  0  0  0  0  0  0  0  0  0  0
    4.5688  -10.1291   29.5758 C   0  0  0  0  0  0  0  0  0  0  0  0
    2.1008   -9.0410   29.1852 N   0  0  0  0  0  0  0  0  0  0  0  0
    3.4829  -10.5697   30.2091 N   0  0  0  0  0  0  0  0  0  0  0  0
   -0.3363   -6.1172   27.5628 C   0  0  0  0  0  0  0  0  0  0  0  0
    3.0331   -7.4400   27.6362 C   0  0  0  0  0  0  0  0  0  0  0  0
    5.4553   -8.5933   27.9644 C   0  0  0  0  0  0  0  0  0  0  0  0
   -2.3870  -12.8440   19.2512 C   0  0  0  0  0  0  0  0  0  0  0  0
    0.5331   -7.6964   16.2751 C   0  0  0  0  0  0  0  0  0  0  0  0
   -0.6740  -10.8737   18.0482 C   0  0  0  0  0  0  0  0  0  0  0  0
    5.6751  -10.5870   29.7637 O   0  0  0  0  0  0  0  0  0  0  0  0
    1.7612   -5.6483   26.7172 C   0  0  0  0  0  0  0  0  0  0  0  0
    0.2221   -9.8326   17.4055 C   0  0  0  0  0  0  0  0  0  0  0  0
    4.3850   -9.0730   28.6745 C   0  0  0  0  0  0  0  0  0  0  0  0
  1  7  4  0
  1 22  4  0
  2 17  4  0
  2 20  4  0
  2 28  4  0
  3  6  1  0
  3 19  1  0
  4 19  1  0
  4 26  1  0
  5 17  4  0
  5 18  4  0
  6 20  1  0
  6 26  1  0
  7 24  4  0
  8 15  4  0
  8 24  4  0
  9 14  4  0
  9 21  4  0
 10 12  4  0
 10 27  4  0
 11 12  4  0
 11 23  4  0
 13 23  4  0
 13 27  4  0
 14 20  4  0
 15 22  4  0
 16 18  4  0
 16 25  2  0
 16 28  4  0
 21 28  4  0
 24 27  1  0
M  END
$$$$

 Created by Python create_sdf_string function

 28 31  0  0  0  0  0  0  0  0999 V2000
   -1.0054  -13.0622   19.1198 C   0  0  0  0  0  0  0  0  0  0  0  0
    3.1478   -8.5360   28.5161 C   0  0  0  0  0  0  0  0  0  0  0  0
    0.5798   -7.1906   27.9330 C   0  0  0  0  0  0  0  0  0  0  0  0
    0.3978   -5.1561   26.6955 C   0  0  0  0  0  0  0  0  0  0  0  0
    2.3063  -10.0533   30.0125 C   0  0  0  0  0  0  0  0  0  0  0  0
    1.8591   -6.8254   27.4685 N   0  0  0  0  0  0  0  0  0  0  0  0
   -0.2167  -12.1055   18.5568 C   0  0  0  0  0  0  0  0  0  0  0  0
   -2.0661  -10.6994   18.1916 C   0  0  0  0  0  0  0  0  0  0  0  0
    5.2703   -7.5691   27.1123 C   0  0  0  0  0  0  0  0  0  0  0  0
    1.6204   -9.9887   17.2935 C   0  0  0  0  0  0  0  0  0  0  0  0
    1.8931   -7.9265   16.2047 C   0  0  0  0  0  0  0  0  0  0  0  0
    2.4396   -9.0801   16.7132 C   0  0  0  0  0  0  0  0  0  0  0  0
   -0.2575   -8.6234   16.8582 C   0  0  0  0  0  0  0  0  0  0  0  0
    4.0614   -7.0367   27.0106 N   0  0  0  0  0  0  0  0  0  0  0  0
   -2.9133  -11.6279   18.7578 C   0  0  0  0  0  0  0  0  0  0  0  0
    4.5688  -10.1291   29.5758 C   0  0  0  0  0  0  0  0  0  0  0  0
    2.1008   -9.0410   29.1852 N   0  0  0  0  0  0  0  0  0  0  0  0
    3.4829  -10.5697   30.2091 N   0  0  0  0  0  0  0  0  0  0  0  0
   -0.3363   -6.1172   27.5628 C   0  0  0  0  0  0  0  0  0  0  0  0
    3.0331   -7.4400   27.6362 C   0  0  0  0  0  0  0  0  0  0  0  0
    5.4553   -8.5933   27.9644 C   0  0  0  0  0  0  0  0  0  0  0  0
   -2.3870  -12.8440   19.2512 C   0  0  0  0  0  0  0  0  0  0  0  0
    0.5331   -7.6964   16.2751 C   0  0  0  0  0  0  0  0  0  0  0  0
   -0.6740  -10.8737   18.0482 C   0  0  0  0  0  0  0  0  0  0  0  0
    5.6751  -10.5870   29.7637 O   0  0  0  0  0  0  0  0  0  0  0  0
    1.7612   -5.6483   26.7172 C   0  0  0  0  0  0  0  0  0  0  0  0
    0.2221   -9.8326   17.4055 C   0  0  0  0  0  0  0  0  0  0  0  0
    4.3850   -9.0730   28.6745 C   0  0  0  0  0  0  0  0  0  0  0  0
  1  7  4  0
  1 22  4  0
  2 17  4  0
  2 20  4  0
  2 28  4  0
  3  6  1  0
  3 19  1  0
  4 19  1  0
  4 26  1  0
  5 17  4  0
  5 18  4  0
  6 20  1  0
  6 26  1  0
  7 24  4  0
  8 15  4  0
  8 24  4  0
  9 14  4  0
  9 21  4  0
 10 12  4  0
 10 27  4  0
 11 12  4  0
 11 23  4  0
 13 23  4  0
 13 27  4  0
 14 20  4  0
 15 22  4  0
 16 18  4  0
 16 25  2  0
 16 28  4  0
 21 28  4  0
 24 27  1  0
M  END
$$$$

 Created by Python create_sdf_string function

 28 31  0  0  0  0  0  0  0  0999 V2000
   -1.0054  -13.0622   19.1198 C   0  0  0  0  0  0  0  0  0  0  0  0
    3.1478   -8.5360   28.5161 C   0  0  0  0  0  0  0  0  0  0  0  0
    0.5798   -7.1906   27.9330 C   0  0  0  0  0  0  0  0  0  0  0  0
    0.3978   -5.1561   26.6955 C   0  0  0  0  0  0  0  0  0  0  0  0
    2.3063  -10.0533   30.0125 C   0  0  0  0  0  0  0  0  0  0  0  0
    1.8591   -6.8254   27.4685 N   0  0  0  0  0  0  0  0  0  0  0  0
   -0.2167  -12.1055   18.5568 C   0  0  0  0  0  0  0  0  0  0  0  0
   -2.0661  -10.6994   18.1916 C   0  0  0  0  0  0  0  0  0  0  0  0
    5.2703   -7.5691   27.1123 C   0  0  0  0  0  0  0  0  0  0  0  0
    1.6204   -9.9887   17.2935 C   0  0  0  0  0  0  0  0  0  0  0  0
    1.8931   -7.9265   16.2047 C   0  0  0  0  0  0  0  0  0  0  0  0
    2.4396   -9.0801   16.7132 C   0  0  0  0  0  0  0  0  0  0  0  0
   -0.2575   -8.6234   16.8582 C   0  0  0  0  0  0  0  0  0  0  0  0
    4.0614   -7.0367   27.0106 N   0  0  0  0  0  0  0  0  0  0  0  0
   -2.9133  -11.6279   18.7578 C   0  0  0  0  0  0  0  0  0  0  0  0
    4.5688  -10.1291   29.5758 C   0  0  0  0  0  0  0  0  0  0  0  0
    2.1008   -9.0410   29.1852 N   0  0  0  0  0  0  0  0  0  0  0  0
    3.4829  -10.5697   30.2091 N   0  0  0  0  0  0  0  0  0  0  0  0
   -0.3363   -6.1172   27.5628 C   0  0  0  0  0  0  0  0  0  0  0  0
    3.0331   -7.4400   27.6362 C   0  0  0  0  0  0  0  0  0  0  0  0
    5.4553   -8.5933   27.9644 C   0  0  0  0  0  0  0  0  0  0  0  0
   -2.3870  -12.8440   19.2512 C   0  0  0  0  0  0  0  0  0  0  0  0
    0.5331   -7.6964   16.2751 C   0  0  0  0  0  0  0  0  0  0  0  0
   -0.6740  -10.8737   18.0482 C   0  0  0  0  0  0  0  0  0  0  0  0
    5.6751  -10.5870   29.7637 O   0  0  0  0  0  0  0  0  0  0  0  0
    1.7612   -5.6483   26.7172 C   0  0  0  0  0  0  0  0  0  0  0  0
    0.2221   -9.8326   17.4055 C   0  0  0  0  0  0  0  0  0  0  0  0
    4.3850   -9.0730   28.6745 C   0  0  0  0  0  0  0  0  0  0  0  0
  1  7  4  0
  1 22  4  0
  2 17  4  0
  2 20  4  0
  2 28  4  0
  3  6  1  0
  3 19  1  0
  4 19  1  0
  4 26  1  0
  5 17  4  0
  5 18  4  0
  6 20  1  0
  6 26  1  0
  7 24  4  0
  8 15  4  0
  8 24  4  0
  9 14  4  0
  9 21  4  0
 10 12  4  0
 10 27  4  0
 11 12  4  0
 11 23  4  0
 13 23  4  0
 13 27  4  0
 14 20  4  0
 15 22  4  0
 16 18  4  0
 16 25  2  0
 16 28  4  0
 21 28  4  0
 24 27  1  0
M  END
$$$$

 Created by Python create_sdf_string function

 28 31  0  0  0  0  0  0  0  0999 V2000
   -1.0054  -13.0622   19.1198 C   0  0  0  0  0  0  0  0  0  0  0  0
    3.1478   -8.5360   28.5161 C   0  0  0  0  0  0  0  0  0  0  0  0
    0.5798   -7.1906   27.9330 C   0  0  0  0  0  0  0  0  0  0  0  0
    0.3978   -5.1561   26.6955 C   0  0  0  0  0  0  0  0  0  0  0  0
    2.3063  -10.0533   30.0125 C   0  0  0  0  0  0  0  0  0  0  0  0
    1.8591   -6.8254   27.4685 N   0  0  0  0  0  0  0  0  0  0  0  0
   -0.2167  -12.1055   18.5568 C   0  0  0  0  0  0  0  0  0  0  0  0
   -2.0661  -10.6994   18.1916 C   0  0  0  0  0  0  0  0  0  0  0  0
    5.2703   -7.5691   27.1123 C   0  0  0  0  0  0  0  0  0  0  0  0
    1.6204   -9.9887   17.2935 C   0  0  0  0  0  0  0  0  0  0  0  0
    1.8931   -7.9265   16.2047 C   0  0  0  0  0  0  0  0  0  0  0  0
    2.4396   -9.0801   16.7132 C   0  0  0  0  0  0  0  0  0  0  0  0
   -0.2575   -8.6234   16.8582 C   0  0  0  0  0  0  0  0  0  0  0  0
    4.0614   -7.0367   27.0106 N   0  0  0  0  0  0  0  0  0  0  0  0
   -2.9133  -11.6279   18.7578 C   0  0  0  0  0  0  0  0  0  0  0  0
    4.5688  -10.1291   29.5758 C   0  0  0  0  0  0  0  0  0  0  0  0
    2.1008   -9.0410   29.1852 N   0  0  0  0  0  0  0  0  0  0  0  0
    3.4829  -10.5697   30.2091 N   0  0  0  0  0  0  0  0  0  0  0  0
   -0.3363   -6.1172   27.5628 C   0  0  0  0  0  0  0  0  0  0  0  0
    3.0331   -7.4400   27.6362 C   0  0  0  0  0  0  0  0  0  0  0  0
    5.4553   -8.5933   27.9644 C   0  0  0  0  0  0  0  0  0  0  0  0
   -2.3870  -12.8440   19.2512 C   0  0  0  0  0  0  0  0  0  0  0  0
    0.5331   -7.6964   16.2751 C   0  0  0  0  0  0  0  0  0  0  0  0
   -0.6740  -10.8737   18.0482 C   0  0  0  0  0  0  0  0  0  0  0  0
    5.6751  -10.5870   29.7637 O   0  0  0  0  0  0  0  0  0  0  0  0
    1.7612   -5.6483   26.7172 C   0  0  0  0  0  0  0  0  0  0  0  0
    0.2221   -9.8326   17.4055 C   0  0  0  0  0  0  0  0  0  0  0  0
    4.3850   -9.0730   28.6745 C   0  0  0  0  0  0  0  0  0  0  0  0
  1  7  4  0
  1 22  4  0
  2 17  4  0
  2 20  4  0
  2 28  4  0
  3  6  1  0
  3 19  1  0
  4 19  1  0
  4 26  1  0
  5 17  4  0
  5 18  4  0
  6 20  1  0
  6 26  1  0
  7 24  4  0
  8 15  4  0
  8 24  4  0
  9 14  4  0
  9 21  4  0
 10 12  4  0
 10 27  4  0
 11 12  4  0
 11 23  4  0
 13 23  4  0
 13 27  4  0
 14 20  4  0
 15 22  4  0
 16 18  4  0
 16 25  2  0
 16 28  4  0
 21 28  4  0
 24 27  1  0
M  END
$$$$

 Created by Python create_sdf_string function

 28 31  0  0  0  0  0  0  0  0999 V2000
   -1.0054  -13.0622   19.1198 C   0  0  0  0  0  0  0  0  0  0  0  0
    3.1478   -8.5360   28.5161 C   0  0  0  0  0  0  0  0  0  0  0  0
    0.5798   -7.1906   27.9330 C   0  0  0  0  0  0  0  0  0  0  0  0
    0.3978   -5.1561   26.6955 C   0  0  0  0  0  0  0  0  0  0  0  0
    2.3063  -10.0533   30.0125 C   0  0  0  0  0  0  0  0  0  0  0  0
    1.8591   -6.8254   27.4685 N   0  0  0  0  0  0  0  0  0  0  0  0
   -0.2167  -12.1055   18.5568 C   0  0  0  0  0  0  0  0  0  0  0  0
   -2.0661  -10.6994   18.1916 C   0  0  0  0  0  0  0  0  0  0  0  0
    5.2703   -7.5691   27.1123 C   0  0  0  0  0  0  0  0  0  0  0  0
    1.6204   -9.9887   17.2935 C   0  0  0  0  0  0  0  0  0  0  0  0
    1.8931   -7.9265   16.2047 C   0  0  0  0  0  0  0  0  0  0  0  0
    2.4396   -9.0801   16.7132 C   0  0  0  0  0  0  0  0  0  0  0  0
   -0.2575   -8.6234   16.8582 C   0  0  0  0  0  0  0  0  0  0  0  0
    4.0614   -7.0367   27.0106 N   0  0  0  0  0  0  0  0  0  0  0  0
   -2.9133  -11.6279   18.7578 C   0  0  0  0  0  0  0  0  0  0  0  0
    4.5688  -10.1291   29.5758 C   0  0  0  0  0  0  0  0  0  0  0  0
    2.1008   -9.0410   29.1852 N   0  0  0  0  0  0  0  0  0  0  0  0
    3.4829  -10.5697   30.2091 N   0  0  0  0  0  0  0  0  0  0  0  0
   -0.3363   -6.1172   27.5628 C   0  0  0  0  0  0  0  0  0  0  0  0
    3.0331   -7.4400   27.6362 C   0  0  0  0  0  0  0  0  0  0  0  0
    5.4553   -8.5933   27.9644 C   0  0  0  0  0  0  0  0  0  0  0  0
   -2.3870  -12.8440   19.2512 C   0  0  0  0  0  0  0  0  0  0  0  0
    0.5331   -7.6964   16.2751 C   0  0  0  0  0  0  0  0  0  0  0  0
   -0.6740  -10.8737   18.0482 C   0  0  0  0  0  0  0  0  0  0  0  0
    5.6751  -10.5870   29.7637 O   0  0  0  0  0  0  0  0  0  0  0  0
    1.7612   -5.6483   26.7172 C   0  0  0  0  0  0  0  0  0  0  0  0
    0.2221   -9.8326   17.4055 C   0  0  0  0  0  0  0  0  0  0  0  0
    4.3850   -9.0730   28.6745 C   0  0  0  0  0  0  0  0  0  0  0  0
  1  7  4  0
  1 22  4  0
  2 17  4  0
  2 20  4  0
  2 28  4  0
  3  6  1  0
  3 19  1  0
  4 19  1  0
  4 26  1  0
  5 17  4  0
  5 18  4  0
  6 20  1  0
  6 26  1  0
  7 24  4  0
  8 15  4  0
  8 24  4  0
  9 14  4  0
  9 21  4  0
 10 12  4  0
 10 27  4  0
 11 12  4  0
 11 23  4  0
 13 23  4  0
 13 27  4  0
 14 20  4  0
 15 22  4  0
 16 18  4  0
 16 25  2  0
 16 28  4  0
 21 28  4  0
 24 27  1  0
M  END
$$$$

 Created by Python create_sdf_string function

 28 31  0  0  0  0  0  0  0  0999 V2000
   -1.0054  -13.0622   19.1198 C   0  0  0  0  0  0  0  0  0  0  0  0
    3.1478   -8.5360   28.5161 C   0  0  0  0  0  0  0  0  0  0  0  0
    0.5798   -7.1906   27.9330 C   0  0  0  0  0  0  0  0  0  0  0  0
    0.3978   -5.1561   26.6955 C   0  0  0  0  0  0  0  0  0  0  0  0
    2.3063  -10.0533   30.0125 C   0  0  0  0  0  0  0  0  0  0  0  0
    1.8591   -6.8254   27.4685 N   0  0  0  0  0  0  0  0  0  0  0  0
   -0.2167  -12.1055   18.5568 C   0  0  0  0  0  0  0  0  0  0  0  0
   -2.0661  -10.6994   18.1916 C   0  0  0  0  0  0  0  0  0  0  0  0
    5.2703   -7.5691   27.1123 C   0  0  0  0  0  0  0  0  0  0  0  0
    1.6204   -9.9887   17.2935 C   0  0  0  0  0  0  0  0  0  0  0  0
    1.8931   -7.9265   16.2047 C   0  0  0  0  0  0  0  0  0  0  0  0
    2.4396   -9.0801   16.7132 C   0  0  0  0  0  0  0  0  0  0  0  0
   -0.2575   -8.6234   16.8582 C   0  0  0  0  0  0  0  0  0  0  0  0
    4.0614   -7.0367   27.0106 N   0  0  0  0  0  0  0  0  0  0  0  0
   -2.9133  -11.6279   18.7578 C   0  0  0  0  0  0  0  0  0  0  0  0
    4.5688  -10.1291   29.5758 C   0  0  0  0  0  0  0  0  0  0  0  0
    2.1008   -9.0410   29.1852 N   0  0  0  0  0  0  0  0  0  0  0  0
    3.4829  -10.5697   30.2091 N   0  0  0  0  0  0  0  0  0  0  0  0
   -0.3363   -6.1172   27.5628 C   0  0  0  0  0  0  0  0  0  0  0  0
    3.0331   -7.4400   27.6362 C   0  0  0  0  0  0  0  0  0  0  0  0
    5.4553   -8.5933   27.9644 C   0  0  0  0  0  0  0  0  0  0  0  0
   -2.3870  -12.8440   19.2512 C   0  0  0  0  0  0  0  0  0  0  0  0
    0.5331   -7.6964   16.2751 C   0  0  0  0  0  0  0  0  0  0  0  0
   -0.6740  -10.8737   18.0482 C   0  0  0  0  0  0  0  0  0  0  0  0
    5.6751  -10.5870   29.7637 O   0  0  0  0  0  0  0  0  0  0  0  0
    1.7612   -5.6483   26.7172 C   0  0  0  0  0  0  0  0  0  0  0  0
    0.2221   -9.8326   17.4055 C   0  0  0  0  0  0  0  0  0  0  0  0
    4.3850   -9.0730   28.6745 C   0  0  0  0  0  0  0  0  0  0  0  0
  1  7  4  0
  1 22  4  0
  2 17  4  0
  2 20  4  0
  2 28  4  0
  3  6  1  0
  3 19  1  0
  4 19  1  0
  4 26  1  0
  5 17  4  0
  5 18  4  0
  6 20  1  0
  6 26  1  0
  7 24  4  0
  8 15  4  0
  8 24  4  0
  9 14  4  0
  9 21  4  0
 10 12  4  0
 10 27  4  0
 11 12  4  0
 11 23  4  0
 13 23  4  0
 13 27  4  0
 14 20  4  0
 15 22  4  0
 16 18  4  0
 16 25  2  0
 16 28  4  0
 21 28  4  0
 24 27  1  0
M  END
$$$$

 Created by Python create_sdf_string function

 28 31  0  0  0  0  0  0  0  0999 V2000
   -1.0054  -13.0622   19.1198 C   0  0  0  0  0  0  0  0  0  0  0  0
    3.1478   -8.5360   28.5161 C   0  0  0  0  0  0  0  0  0  0  0  0
    0.5798   -7.1906   27.9330 C   0  0  0  0  0  0  0  0  0  0  0  0
    0.3978   -5.1561   26.6955 C   0  0  0  0  0  0  0  0  0  0  0  0
    2.3063  -10.0533   30.0125 C   0  0  0  0  0  0  0  0  0  0  0  0
    1.8591   -6.8254   27.4685 N   0  0  0  0  0  0  0  0  0  0  0  0
   -0.2167  -12.1055   18.5568 C   0  0  0  0  0  0  0  0  0  0  0  0
   -2.0661  -10.6994   18.1916 C   0  0  0  0  0  0  0  0  0  0  0  0
    5.2703   -7.5691   27.1123 C   0  0  0  0  0  0  0  0  0  0  0  0
    1.6204   -9.9887   17.2935 C   0  0  0  0  0  0  0  0  0  0  0  0
    1.8931   -7.9265   16.2047 C   0  0  0  0  0  0  0  0  0  0  0  0
    2.4396   -9.0801   16.7132 C   0  0  0  0  0  0  0  0  0  0  0  0
   -0.2575   -8.6234   16.8582 C   0  0  0  0  0  0  0  0  0  0  0  0
    4.0614   -7.0367   27.0106 N   0  0  0  0  0  0  0  0  0  0  0  0
   -2.9133  -11.6279   18.7578 C   0  0  0  0  0  0  0  0  0  0  0  0
    4.5688  -10.1291   29.5758 C   0  0  0  0  0  0  0  0  0  0  0  0
    2.1008   -9.0410   29.1852 N   0  0  0  0  0  0  0  0  0  0  0  0
    3.4829  -10.5697   30.2091 N   0  0  0  0  0  0  0  0  0  0  0  0
   -0.3363   -6.1172   27.5628 C   0  0  0  0  0  0  0  0  0  0  0  0
    3.0331   -7.4400   27.6362 C   0  0  0  0  0  0  0  0  0  0  0  0
    5.4553   -8.5933   27.9644 C   0  0  0  0  0  0  0  0  0  0  0  0
   -2.3870  -12.8440   19.2512 C   0  0  0  0  0  0  0  0  0  0  0  0
    0.5331   -7.6964   16.2751 C   0  0  0  0  0  0  0  0  0  0  0  0
   -0.6740  -10.8737   18.0482 C   0  0  0  0  0  0  0  0  0  0  0  0
    5.6751  -10.5870   29.7637 O   0  0  0  0  0  0  0  0  0  0  0  0
    1.7612   -5.6483   26.7172 C   0  0  0  0  0  0  0  0  0  0  0  0
    0.2221   -9.8326   17.4055 C   0  0  0  0  0  0  0  0  0  0  0  0
    4.3850   -9.0730   28.6745 C   0  0  0  0  0  0  0  0  0  0  0  0
  1  7  4  0
  1 22  4  0
  2 17  4  0
  2 20  4  0
  2 28  4  0
  3  6  1  0
  3 19  1  0
  4 19  1  0
  4 26  1  0
  5 17  4  0
  5 18  4  0
  6 20  1  0
  6 26  1  0
  7 24  4  0
  8 15  4  0
  8 24  4  0
  9 14  4  0
  9 21  4  0
 10 12  4  0
 10 27  4  0
 11 12  4  0
 11 23  4  0
 13 23  4  0
 13 27  4  0
 14 20  4  0
 15 22  4  0
 16 18  4  0
 16 25  2  0
 16 28  4  0
 21 28  4  0
 24 27  1  0
M  END
$$$$

 Created by Python create_sdf_string function

 28 31  0  0  0  0  0  0  0  0999 V2000
   -1.0054  -13.0622   19.1198 C   0  0  0  0  0  0  0  0  0  0  0  0
    3.1478   -8.5360   28.5161 C   0  0  0  0  0  0  0  0  0  0  0  0
    0.5798   -7.1906   27.9330 C   0  0  0  0  0  0  0  0  0  0  0  0
    0.3978   -5.1561   26.6955 C   0  0  0  0  0  0  0  0  0  0  0  0
    2.3063  -10.0533   30.0125 C   0  0  0  0  0  0  0  0  0  0  0  0
    1.8591   -6.8254   27.4685 N   0  0  0  0  0  0  0  0  0  0  0  0
   -0.2167  -12.1055   18.5568 C   0  0  0  0  0  0  0  0  0  0  0  0
   -2.0661  -10.6994   18.1916 C   0  0  0  0  0  0  0  0  0  0  0  0
    5.2703   -7.5691   27.1123 C   0  0  0  0  0  0  0  0  0  0  0  0
    1.6204   -9.9887   17.2935 C   0  0  0  0  0  0  0  0  0  0  0  0
    1.8931   -7.9265   16.2047 C   0  0  0  0  0  0  0  0  0  0  0  0
    2.4396   -9.0801   16.7132 C   0  0  0  0  0  0  0  0  0  0  0  0
   -0.2575   -8.6234   16.8582 C   0  0  0  0  0  0  0  0  0  0  0  0
    4.0614   -7.0367   27.0106 N   0  0  0  0  0  0  0  0  0  0  0  0
   -2.9133  -11.6279   18.7578 C   0  0  0  0  0  0  0  0  0  0  0  0
    4.5688  -10.1291   29.5758 C   0  0  0  0  0  0  0  0  0  0  0  0
    2.1008   -9.0410   29.1852 N   0  0  0  0  0  0  0  0  0  0  0  0
    3.4829  -10.5697   30.2091 N   0  0  0  0  0  0  0  0  0  0  0  0
   -0.3363   -6.1172   27.5628 C   0  0  0  0  0  0  0  0  0  0  0  0
    3.0331   -7.4400   27.6362 C   0  0  0  0  0  0  0  0  0  0  0  0
    5.4553   -8.5933   27.9644 C   0  0  0  0  0  0  0  0  0  0  0  0
   -2.3870  -12.8440   19.2512 C   0  0  0  0  0  0  0  0  0  0  0  0
    0.5331   -7.6964   16.2751 C   0  0  0  0  0  0  0  0  0  0  0  0
   -0.6740  -10.8737   18.0482 C   0  0  0  0  0  0  0  0  0  0  0  0
    5.6751  -10.5870   29.7637 O   0  0  0  0  0  0  0  0  0  0  0  0
    1.7612   -5.6483   26.7172 C   0  0  0  0  0  0  0  0  0  0  0  0
    0.2221   -9.8326   17.4055 C   0  0  0  0  0  0  0  0  0  0  0  0
    4.3850   -9.0730   28.6745 C   0  0  0  0  0  0  0  0  0  0  0  0
  1  7  4  0
  1 22  4  0
  2 17  4  0
  2 20  4  0
  2 28  4  0
  3  6  1  0
  3 19  1  0
  4 19  1  0
  4 26  1  0
  5 17  4  0
  5 18  4  0
  6 20  1  0
  6 26  1  0
  7 24  4  0
  8 15  4  0
  8 24  4  0
  9 14  4  0
  9 21  4  0
 10 12  4  0
 10 27  4  0
 11 12  4  0
 11 23  4  0
 13 23  4  0
 13 27  4  0
 14 20  4  0
 15 22  4  0
 16 18  4  0
 16 25  2  0
 16 28  4  0
 21 28  4  0
 24 27  1  0
M  END
$$$$

 Created by Python create_sdf_string function

 28 31  0  0  0  0  0  0  0  0999 V2000
   -1.0054  -13.0622   19.1198 C   0  0  0  0  0  0  0  0  0  0  0  0
    3.1478   -8.5360   28.5161 C   0  0  0  0  0  0  0  0  0  0  0  0
    0.5798   -7.1906   27.9330 C   0  0  0  0  0  0  0  0  0  0  0  0
    0.3978   -5.1561   26.6955 C   0  0  0  0  0  0  0  0  0  0  0  0
    2.3063  -10.0533   30.0125 C   0  0  0  0  0  0  0  0  0  0  0  0
    1.8591   -6.8254   27.4685 N   0  0  0  0  0  0  0  0  0  0  0  0
   -0.2167  -12.1055   18.5568 C   0  0  0  0  0  0  0  0  0  0  0  0
   -2.0661  -10.6994   18.1916 C   0  0  0  0  0  0  0  0  0  0  0  0
    5.2703   -7.5691   27.1123 C   0  0  0  0  0  0  0  0  0  0  0  0
    1.6204   -9.9887   17.2935 C   0  0  0  0  0  0  0  0  0  0  0  0
    1.8931   -7.9265   16.2047 C   0  0  0  0  0  0  0  0  0  0  0  0
    2.4396   -9.0801   16.7132 C   0  0  0  0  0  0  0  0  0  0  0  0
   -0.2575   -8.6234   16.8582 C   0  0  0  0  0  0  0  0  0  0  0  0
    4.0614   -7.0367   27.0106 N   0  0  0  0  0  0  0  0  0  0  0  0
   -2.9133  -11.6279   18.7578 C   0  0  0  0  0  0  0  0  0  0  0  0
    4.5688  -10.1291   29.5758 C   0  0  0  0  0  0  0  0  0  0  0  0
    2.1008   -9.0410   29.1852 N   0  0  0  0  0  0  0  0  0  0  0  0
    3.4829  -10.5697   30.2091 N   0  0  0  0  0  0  0  0  0  0  0  0
   -0.3363   -6.1172   27.5628 C   0  0  0  0  0  0  0  0  0  0  0  0
    3.0331   -7.4400   27.6362 C   0  0  0  0  0  0  0  0  0  0  0  0
    5.4553   -8.5933   27.9644 C   0  0  0  0  0  0  0  0  0  0  0  0
   -2.3870  -12.8440   19.2512 C   0  0  0  0  0  0  0  0  0  0  0  0
    0.5331   -7.6964   16.2751 C   0  0  0  0  0  0  0  0  0  0  0  0
   -0.6740  -10.8737   18.0482 C   0  0  0  0  0  0  0  0  0  0  0  0
    5.6751  -10.5870   29.7637 O   0  0  0  0  0  0  0  0  0  0  0  0
    1.7612   -5.6483   26.7172 C   0  0  0  0  0  0  0  0  0  0  0  0
    0.2221   -9.8326   17.4055 C   0  0  0  0  0  0  0  0  0  0  0  0
    4.3850   -9.0730   28.6745 C   0  0  0  0  0  0  0  0  0  0  0  0
  1  7  4  0
  1 22  4  0
  2 17  4  0
  2 20  4  0
  2 28  4  0
  3  6  1  0
  3 19  1  0
  4 19  1  0
  4 26  1  0
  5 17  4  0
  5 18  4  0
  6 20  1  0
  6 26  1  0
  7 24  4  0
  8 15  4  0
  8 24  4  0
  9 14  4  0
  9 21  4  0
 10 12  4  0
 10 27  4  0
 11 12  4  0
 11 23  4  0
 13 23  4  0
 13 27  4  0
 14 20  4  0
 15 22  4  0
 16 18  4  0
 16 25  2  0
 16 28  4  0
 21 28  4  0
 24 27  1  0
M  END
$$$$

 Created by Python create_sdf_string function

 28 31  0  0  0  0  0  0  0  0999 V2000
   -1.0054  -13.0622   19.1198 C   0  0  0  0  0  0  0  0  0  0  0  0
    3.1478   -8.5360   28.5161 C   0  0  0  0  0  0  0  0  0  0  0  0
    0.5798   -7.1906   27.9330 C   0  0  0  0  0  0  0  0  0  0  0  0
    0.3978   -5.1561   26.6955 C   0  0  0  0  0  0  0  0  0  0  0  0
    2.3063  -10.0533   30.0125 C   0  0  0  0  0  0  0  0  0  0  0  0
    1.8591   -6.8254   27.4685 N   0  0  0  0  0  0  0  0  0  0  0  0
   -0.2167  -12.1055   18.5568 C   0  0  0  0  0  0  0  0  0  0  0  0
   -2.0661  -10.6994   18.1916 C   0  0  0  0  0  0  0  0  0  0  0  0
    5.2703   -7.5691   27.1123 C   0  0  0  0  0  0  0  0  0  0  0  0
    1.6204   -9.9887   17.2935 C   0  0  0  0  0  0  0  0  0  0  0  0
    1.8931   -7.9265   16.2047 C   0  0  0  0  0  0  0  0  0  0  0  0
    2.4396   -9.0801   16.7132 C   0  0  0  0  0  0  0  0  0  0  0  0
   -0.2575   -8.6234   16.8582 C   0  0  0  0  0  0  0  0  0  0  0  0
    4.0614   -7.0367   27.0106 N   0  0  0  0  0  0  0  0  0  0  0  0
   -2.9133  -11.6279   18.7578 C   0  0  0  0  0  0  0  0  0  0  0  0
    4.5688  -10.1291   29.5758 C   0  0  0  0  0  0  0  0  0  0  0  0
    2.1008   -9.0410   29.1852 N   0  0  0  0  0  0  0  0  0  0  0  0
    3.4829  -10.5697   30.2091 N   0  0  0  0  0  0  0  0  0  0  0  0
   -0.3363   -6.1172   27.5628 C   0  0  0  0  0  0  0  0  0  0  0  0
    3.0331   -7.4400   27.6362 C   0  0  0  0  0  0  0  0  0  0  0  0
    5.4553   -8.5933   27.9644 C   0  0  0  0  0  0  0  0  0  0  0  0
   -2.3870  -12.8440   19.2512 C   0  0  0  0  0  0  0  0  0  0  0  0
    0.5331   -7.6964   16.2751 C   0  0  0  0  0  0  0  0  0  0  0  0
   -0.6740  -10.8737   18.0482 C   0  0  0  0  0  0  0  0  0  0  0  0
    5.6751  -10.5870   29.7637 O   0  0  0  0  0  0  0  0  0  0  0  0
    1.7612   -5.6483   26.7172 C   0  0  0  0  0  0  0  0  0  0  0  0
    0.2221   -9.8326   17.4055 C   0  0  0  0  0  0  0  0  0  0  0  0
    4.3850   -9.0730   28.6745 C   0  0  0  0  0  0  0  0  0  0  0  0
  1  7  4  0
  1 22  4  0
  2 17  4  0
  2 20  4  0
  2 28  4  0
  3  6  1  0
  3 19  1  0
  4 19  1  0
  4 26  1  0
  5 17  4  0
  5 18  4  0
  6 20  1  0
  6 26  1  0
  7 24  4  0
  8 15  4  0
  8 24  4  0
  9 14  4  0
  9 21  4  0
 10 12  4  0
 10 27  4  0
 11 12  4  0
 11 23  4  0
 13 23  4  0
 13 27  4  0
 14 20  4  0
 15 22  4  0
 16 18  4  0
 16 25  2  0
 16 28  4  0
 21 28  4  0
 24 27  1  0
M  END
$$$$

 Created by Python create_sdf_string function

 28 31  0  0  0  0  0  0  0  0999 V2000
   -1.0054  -13.0622   19.1198 C   0  0  0  0  0  0  0  0  0  0  0  0
    3.1478   -8.5360   28.5161 C   0  0  0  0  0  0  0  0  0  0  0  0
    0.5798   -7.1906   27.9330 C   0  0  0  0  0  0  0  0  0  0  0  0
    0.3978   -5.1561   26.6955 C   0  0  0  0  0  0  0  0  0  0  0  0
    2.3063  -10.0533   30.0125 C   0  0  0  0  0  0  0  0  0  0  0  0
    1.8591   -6.8254   27.4685 N   0  0  0  0  0  0  0  0  0  0  0  0
   -0.2167  -12.1055   18.5568 C   0  0  0  0  0  0  0  0  0  0  0  0
   -2.0661  -10.6994   18.1916 C   0  0  0  0  0  0  0  0  0  0  0  0
    5.2703   -7.5691   27.1123 C   0  0  0  0  0  0  0  0  0  0  0  0
    1.6204   -9.9887   17.2935 C   0  0  0  0  0  0  0  0  0  0  0  0
    1.8931   -7.9265   16.2047 C   0  0  0  0  0  0  0  0  0  0  0  0
    2.4396   -9.0801   16.7132 C   0  0  0  0  0  0  0  0  0  0  0  0
   -0.2575   -8.6234   16.8582 C   0  0  0  0  0  0  0  0  0  0  0  0
    4.0614   -7.0367   27.0106 N   0  0  0  0  0  0  0  0  0  0  0  0
   -2.9133  -11.6279   18.7578 C   0  0  0  0  0  0  0  0  0  0  0  0
    4.5688  -10.1291   29.5758 C   0  0  0  0  0  0  0  0  0  0  0  0
    2.1008   -9.0410   29.1852 N   0  0  0  0  0  0  0  0  0  0  0  0
    3.4829  -10.5697   30.2091 N   0  0  0  0  0  0  0  0  0  0  0  0
   -0.3363   -6.1172   27.5628 C   0  0  0  0  0  0  0  0  0  0  0  0
    3.0331   -7.4400   27.6362 C   0  0  0  0  0  0  0  0  0  0  0  0
    5.4553   -8.5933   27.9644 C   0  0  0  0  0  0  0  0  0  0  0  0
   -2.3870  -12.8440   19.2512 C   0  0  0  0  0  0  0  0  0  0  0  0
    0.5331   -7.6964   16.2751 C   0  0  0  0  0  0  0  0  0  0  0  0
   -0.6740  -10.8737   18.0482 C   0  0  0  0  0  0  0  0  0  0  0  0
    5.6751  -10.5870   29.7637 O   0  0  0  0  0  0  0  0  0  0  0  0
    1.7612   -5.6483   26.7172 C   0  0  0  0  0  0  0  0  0  0  0  0
    0.2221   -9.8326   17.4055 C   0  0  0  0  0  0  0  0  0  0  0  0
    4.3850   -9.0730   28.6745 C   0  0  0  0  0  0  0  0  0  0  0  0
  1  7  4  0
  1 22  4  0
  2 17  4  0
  2 20  4  0
  2 28  4  0
  3  6  1  0
  3 19  1  0
  4 19  1  0
  4 26  1  0
  5 17  4  0
  5 18  4  0
  6 20  1  0
  6 26  1  0
  7 24  4  0
  8 15  4  0
  8 24  4  0
  9 14  4  0
  9 21  4  0
 10 12  4  0
 10 27  4  0
 11 12  4  0
 11 23  4  0
 13 23  4  0
 13 27  4  0
 14 20  4  0
 15 22  4  0
 16 18  4  0
 16 25  2  0
 16 28  4  0
 21 28  4  0
 24 27  1  0
M  END
$$$$

 Created by Python create_sdf_string function

 28 31  0  0  0  0  0  0  0  0999 V2000
   -1.0054  -13.0622   19.1198 C   0  0  0  0  0  0  0  0  0  0  0  0
    3.1478   -8.5360   28.5161 C   0  0  0  0  0  0  0  0  0  0  0  0
    0.5798   -7.1906   27.9330 C   0  0  0  0  0  0  0  0  0  0  0  0
    0.3978   -5.1561   26.6955 C   0  0  0  0  0  0  0  0  0  0  0  0
    2.3063  -10.0533   30.0125 C   0  0  0  0  0  0  0  0  0  0  0  0
    1.8591   -6.8254   27.4685 N   0  0  0  0  0  0  0  0  0  0  0  0
   -0.2167  -12.1055   18.5568 C   0  0  0  0  0  0  0  0  0  0  0  0
   -2.0661  -10.6994   18.1916 C   0  0  0  0  0  0  0  0  0  0  0  0
    5.2703   -7.5691   27.1123 C   0  0  0  0  0  0  0  0  0  0  0  0
    1.6204   -9.9887   17.2935 C   0  0  0  0  0  0  0  0  0  0  0  0
    1.8931   -7.9265   16.2047 C   0  0  0  0  0  0  0  0  0  0  0  0
    2.4396   -9.0801   16.7132 C   0  0  0  0  0  0  0  0  0  0  0  0
   -0.2575   -8.6234   16.8582 C   0  0  0  0  0  0  0  0  0  0  0  0
    4.0614   -7.0367   27.0106 N   0  0  0  0  0  0  0  0  0  0  0  0
   -2.9133  -11.6279   18.7578 C   0  0  0  0  0  0  0  0  0  0  0  0
    4.5688  -10.1291   29.5758 C   0  0  0  0  0  0  0  0  0  0  0  0
    2.1008   -9.0410   29.1852 N   0  0  0  0  0  0  0  0  0  0  0  0
    3.4829  -10.5697   30.2091 N   0  0  0  0  0  0  0  0  0  0  0  0
   -0.3363   -6.1172   27.5628 C   0  0  0  0  0  0  0  0  0  0  0  0
    3.0331   -7.4400   27.6362 C   0  0  0  0  0  0  0  0  0  0  0  0
    5.4553   -8.5933   27.9644 C   0  0  0  0  0  0  0  0  0  0  0  0
   -2.3870  -12.8440   19.2512 C   0  0  0  0  0  0  0  0  0  0  0  0
    0.5331   -7.6964   16.2751 C   0  0  0  0  0  0  0  0  0  0  0  0
   -0.6740  -10.8737   18.0482 C   0  0  0  0  0  0  0  0  0  0  0  0
    5.6751  -10.5870   29.7637 O   0  0  0  0  0  0  0  0  0  0  0  0
    1.7612   -5.6483   26.7172 C   0  0  0  0  0  0  0  0  0  0  0  0
    0.2221   -9.8326   17.4055 C   0  0  0  0  0  0  0  0  0  0  0  0
    4.3850   -9.0730   28.6745 C   0  0  0  0  0  0  0  0  0  0  0  0
  1  7  4  0
  1 22  4  0
  2 17  4  0
  2 20  4  0
  2 28  4  0
  3  6  1  0
  3 19  1  0
  4 19  1  0
  4 26  1  0
  5 17  4  0
  5 18  4  0
  6 20  1  0
  6 26  1  0
  7 24  4  0
  8 15  4  0
  8 24  4  0
  9 14  4  0
  9 21  4  0
 10 12  4  0
 10 27  4  0
 11 12  4  0
 11 23  4  0
 13 23  4  0
 13 27  4  0
 14 20  4  0
 15 22  4  0
 16 18  4  0
 16 25  2  0
 16 28  4  0
 21 28  4  0
 24 27  1  0
M  END
$$$$

 Created by Python create_sdf_string function

 28 31  0  0  0  0  0  0  0  0999 V2000
   -1.0054  -13.0622   19.1198 C   0  0  0  0  0  0  0  0  0  0  0  0
    3.1478   -8.5360   28.5161 C   0  0  0  0  0  0  0  0  0  0  0  0
    0.5798   -7.1906   27.9330 C   0  0  0  0  0  0  0  0  0  0  0  0
    0.3978   -5.1561   26.6955 C   0  0  0  0  0  0  0  0  0  0  0  0
    2.3063  -10.0533   30.0125 C   0  0  0  0  0  0  0  0  0  0  0  0
    1.8591   -6.8254   27.4685 N   0  0  0  0  0  0  0  0  0  0  0  0
   -0.2167  -12.1055   18.5568 C   0  0  0  0  0  0  0  0  0  0  0  0
   -2.0661  -10.6994   18.1916 C   0  0  0  0  0  0  0  0  0  0  0  0
    5.2703   -7.5691   27.1123 C   0  0  0  0  0  0  0  0  0  0  0  0
    1.6204   -9.9887   17.2935 C   0  0  0  0  0  0  0  0  0  0  0  0
    1.8931   -7.9265   16.2047 C   0  0  0  0  0  0  0  0  0  0  0  0
    2.4396   -9.0801   16.7132 C   0  0  0  0  0  0  0  0  0  0  0  0
   -0.2575   -8.6234   16.8582 C   0  0  0  0  0  0  0  0  0  0  0  0
    4.0614   -7.0367   27.0106 N   0  0  0  0  0  0  0  0  0  0  0  0
   -2.9133  -11.6279   18.7578 C   0  0  0  0  0  0  0  0  0  0  0  0
    4.5688  -10.1291   29.5758 C   0  0  0  0  0  0  0  0  0  0  0  0
    2.1008   -9.0410   29.1852 N   0  0  0  0  0  0  0  0  0  0  0  0
    3.4829  -10.5697   30.2091 N   0  0  0  0  0  0  0  0  0  0  0  0
   -0.3363   -6.1172   27.5628 C   0  0  0  0  0  0  0  0  0  0  0  0
    3.0331   -7.4400   27.6362 C   0  0  0  0  0  0  0  0  0  0  0  0
    5.4553   -8.5933   27.9644 C   0  0  0  0  0  0  0  0  0  0  0  0
   -2.3870  -12.8440   19.2512 C   0  0  0  0  0  0  0  0  0  0  0  0
    0.5331   -7.6964   16.2751 C   0  0  0  0  0  0  0  0  0  0  0  0
   -0.6740  -10.8737   18.0482 C   0  0  0  0  0  0  0  0  0  0  0  0
    5.6751  -10.5870   29.7637 O   0  0  0  0  0  0  0  0  0  0  0  0
    1.7612   -5.6483   26.7172 C   0  0  0  0  0  0  0  0  0  0  0  0
    0.2221   -9.8326   17.4055 C   0  0  0  0  0  0  0  0  0  0  0  0
    4.3850   -9.0730   28.6745 C   0  0  0  0  0  0  0  0  0  0  0  0
  1  7  4  0
  1 22  4  0
  2 17  4  0
  2 20  4  0
  2 28  4  0
  3  6  1  0
  3 19  1  0
  4 19  1  0
  4 26  1  0
  5 17  4  0
  5 18  4  0
  6 20  1  0
  6 26  1  0
  7 24  4  0
  8 15  4  0
  8 24  4  0
  9 14  4  0
  9 21  4  0
 10 12  4  0
 10 27  4  0
 11 12  4  0
 11 23  4  0
 13 23  4  0
 13 27  4  0
 14 20  4  0
 15 22  4  0
 16 18  4  0
 16 25  2  0
 16 28  4  0
 21 28  4  0
 24 27  1  0
M  END
$$$$

 Created by Python create_sdf_string function

 28 31  0  0  0  0  0  0  0  0999 V2000
   -1.0054  -13.0622   19.1198 C   0  0  0  0  0  0  0  0  0  0  0  0
    3.1478   -8.5360   28.5161 C   0  0  0  0  0  0  0  0  0  0  0  0
    0.5798   -7.1906   27.9330 C   0  0  0  0  0  0  0  0  0  0  0  0
    0.3978   -5.1561   26.6955 C   0  0  0  0  0  0  0  0  0  0  0  0
    2.3063  -10.0533   30.0125 C   0  0  0  0  0  0  0  0  0  0  0  0
    1.8591   -6.8254   27.4685 N   0  0  0  0  0  0  0  0  0  0  0  0
   -0.2167  -12.1055   18.5568 C   0  0  0  0  0  0  0  0  0  0  0  0
   -2.0661  -10.6994   18.1916 C   0  0  0  0  0  0  0  0  0  0  0  0
    5.2703   -7.5691   27.1123 C   0  0  0  0  0  0  0  0  0  0  0  0
    1.6204   -9.9887   17.2935 C   0  0  0  0  0  0  0  0  0  0  0  0
    1.8931   -7.9265   16.2047 C   0  0  0  0  0  0  0  0  0  0  0  0
    2.4396   -9.0801   16.7132 C   0  0  0  0  0  0  0  0  0  0  0  0
   -0.2575   -8.6234   16.8582 C   0  0  0  0  0  0  0  0  0  0  0  0
    4.0614   -7.0367   27.0106 N   0  0  0  0  0  0  0  0  0  0  0  0
   -2.9133  -11.6279   18.7578 C   0  0  0  0  0  0  0  0  0  0  0  0
    4.5688  -10.1291   29.5758 C   0  0  0  0  0  0  0  0  0  0  0  0
    2.1008   -9.0410   29.1852 N   0  0  0  0  0  0  0  0  0  0  0  0
    3.4829  -10.5697   30.2091 N   0  0  0  0  0  0  0  0  0  0  0  0
   -0.3363   -6.1172   27.5628 C   0  0  0  0  0  0  0  0  0  0  0  0
    3.0331   -7.4400   27.6362 C   0  0  0  0  0  0  0  0  0  0  0  0
    5.4553   -8.5933   27.9644 C   0  0  0  0  0  0  0  0  0  0  0  0
   -2.3870  -12.8440   19.2512 C   0  0  0  0  0  0  0  0  0  0  0  0
    0.5331   -7.6964   16.2751 C   0  0  0  0  0  0  0  0  0  0  0  0
   -0.6740  -10.8737   18.0482 C   0  0  0  0  0  0  0  0  0  0  0  0
    5.6751  -10.5870   29.7637 O   0  0  0  0  0  0  0  0  0  0  0  0
    1.7612   -5.6483   26.7172 C   0  0  0  0  0  0  0  0  0  0  0  0
    0.2221   -9.8326   17.4055 C   0  0  0  0  0  0  0  0  0  0  0  0
    4.3850   -9.0730   28.6745 C   0  0  0  0  0  0  0  0  0  0  0  0
  1  7  4  0
  1 22  4  0
  2 17  4  0
  2 20  4  0
  2 28  4  0
  3  6  1  0
  3 19  1  0
  4 19  1  0
  4 26  1  0
  5 17  4  0
  5 18  4  0
  6 20  1  0
  6 26  1  0
  7 24  4  0
  8 15  4  0
  8 24  4  0
  9 14  4  0
  9 21  4  0
 10 12  4  0
 10 27  4  0
 11 12  4  0
 11 23  4  0
 13 23  4  0
 13 27  4  0
 14 20  4  0
 15 22  4  0
 16 18  4  0
 16 25  2  0
 16 28  4  0
 21 28  4  0
 24 27  1  0
M  END
$$$$

 Created by Python create_sdf_string function

 28 31  0  0  0  0  0  0  0  0999 V2000
   -1.0054  -13.0622   19.1198 C   0  0  0  0  0  0  0  0  0  0  0  0
    3.1478   -8.5360   28.5161 C   0  0  0  0  0  0  0  0  0  0  0  0
    0.5798   -7.1906   27.9330 C   0  0  0  0  0  0  0  0  0  0  0  0
    0.3978   -5.1561   26.6955 C   0  0  0  0  0  0  0  0  0  0  0  0
    2.3063  -10.0533   30.0125 C   0  0  0  0  0  0  0  0  0  0  0  0
    1.8591   -6.8254   27.4685 N   0  0  0  0  0  0  0  0  0  0  0  0
   -0.2167  -12.1055   18.5568 C   0  0  0  0  0  0  0  0  0  0  0  0
   -2.0661  -10.6994   18.1916 C   0  0  0  0  0  0  0  0  0  0  0  0
    5.2703   -7.5691   27.1123 C   0  0  0  0  0  0  0  0  0  0  0  0
    1.6204   -9.9887   17.2935 C   0  0  0  0  0  0  0  0  0  0  0  0
    1.8931   -7.9265   16.2047 C   0  0  0  0  0  0  0  0  0  0  0  0
    2.4396   -9.0801   16.7132 C   0  0  0  0  0  0  0  0  0  0  0  0
   -0.2575   -8.6234   16.8582 C   0  0  0  0  0  0  0  0  0  0  0  0
    4.0614   -7.0367   27.0106 N   0  0  0  0  0  0  0  0  0  0  0  0
   -2.9133  -11.6279   18.7578 C   0  0  0  0  0  0  0  0  0  0  0  0
    4.5688  -10.1291   29.5758 C   0  0  0  0  0  0  0  0  0  0  0  0
    2.1008   -9.0410   29.1852 N   0  0  0  0  0  0  0  0  0  0  0  0
    3.4829  -10.5697   30.2091 N   0  0  0  0  0  0  0  0  0  0  0  0
   -0.3363   -6.1172   27.5628 C   0  0  0  0  0  0  0  0  0  0  0  0
    3.0331   -7.4400   27.6362 C   0  0  0  0  0  0  0  0  0  0  0  0
    5.4553   -8.5933   27.9644 C   0  0  0  0  0  0  0  0  0  0  0  0
   -2.3870  -12.8440   19.2512 C   0  0  0  0  0  0  0  0  0  0  0  0
    0.5331   -7.6964   16.2751 C   0  0  0  0  0  0  0  0  0  0  0  0
   -0.6740  -10.8737   18.0482 C   0  0  0  0  0  0  0  0  0  0  0  0
    5.6751  -10.5870   29.7637 O   0  0  0  0  0  0  0  0  0  0  0  0
    1.7612   -5.6483   26.7172 C   0  0  0  0  0  0  0  0  0  0  0  0
    0.2221   -9.8326   17.4055 C   0  0  0  0  0  0  0  0  0  0  0  0
    4.3850   -9.0730   28.6745 C   0  0  0  0  0  0  0  0  0  0  0  0
  1  7  4  0
  1 22  4  0
  2 17  4  0
  2 20  4  0
  2 28  4  0
  3  6  1  0
  3 19  1  0
  4 19  1  0
  4 26  1  0
  5 17  4  0
  5 18  4  0
  6 20  1  0
  6 26  1  0
  7 24  4  0
  8 15  4  0
  8 24  4  0
  9 14  4  0
  9 21  4  0
 10 12  4  0
 10 27  4  0
 11 12  4  0
 11 23  4  0
 13 23  4  0
 13 27  4  0
 14 20  4  0
 15 22  4  0
 16 18  4  0
 16 25  2  0
 16 28  4  0
 21 28  4  0
 24 27  1  0
M  END
$$$$

 Created by Python create_sdf_string function

 28 31  0  0  0  0  0  0  0  0999 V2000
   -1.0054  -13.0622   19.1198 C   0  0  0  0  0  0  0  0  0  0  0  0
    3.1478   -8.5360   28.5161 C   0  0  0  0  0  0  0  0  0  0  0  0
    0.5798   -7.1906   27.9330 C   0  0  0  0  0  0  0  0  0  0  0  0
    0.3978   -5.1561   26.6955 C   0  0  0  0  0  0  0  0  0  0  0  0
    2.3063  -10.0533   30.0125 C   0  0  0  0  0  0  0  0  0  0  0  0
    1.8591   -6.8254   27.4685 N   0  0  0  0  0  0  0  0  0  0  0  0
   -0.2167  -12.1055   18.5568 C   0  0  0  0  0  0  0  0  0  0  0  0
   -2.0661  -10.6994   18.1916 C   0  0  0  0  0  0  0  0  0  0  0  0
    5.2703   -7.5691   27.1123 C   0  0  0  0  0  0  0  0  0  0  0  0
    1.6204   -9.9887   17.2935 C   0  0  0  0  0  0  0  0  0  0  0  0
    1.8931   -7.9265   16.2047 C   0  0  0  0  0  0  0  0  0  0  0  0
    2.4396   -9.0801   16.7132 C   0  0  0  0  0  0  0  0  0  0  0  0
   -0.2575   -8.6234   16.8582 C   0  0  0  0  0  0  0  0  0  0  0  0
    4.0614   -7.0367   27.0106 N   0  0  0  0  0  0  0  0  0  0  0  0
   -2.9133  -11.6279   18.7578 C   0  0  0  0  0  0  0  0  0  0  0  0
    4.5688  -10.1291   29.5758 C   0  0  0  0  0  0  0  0  0  0  0  0
    2.1008   -9.0410   29.1852 N   0  0  0  0  0  0  0  0  0  0  0  0
    3.4829  -10.5697   30.2091 N   0  0  0  0  0  0  0  0  0  0  0  0
   -0.3363   -6.1172   27.5628 C   0  0  0  0  0  0  0  0  0  0  0  0
    3.0331   -7.4400   27.6362 C   0  0  0  0  0  0  0  0  0  0  0  0
    5.4553   -8.5933   27.9644 C   0  0  0  0  0  0  0  0  0  0  0  0
   -2.3870  -12.8440   19.2512 C   0  0  0  0  0  0  0  0  0  0  0  0
    0.5331   -7.6964   16.2751 C   0  0  0  0  0  0  0  0  0  0  0  0
   -0.6740  -10.8737   18.0482 C   0  0  0  0  0  0  0  0  0  0  0  0
    5.6751  -10.5870   29.7637 O   0  0  0  0  0  0  0  0  0  0  0  0
    1.7612   -5.6483   26.7172 C   0  0  0  0  0  0  0  0  0  0  0  0
    0.2221   -9.8326   17.4055 C   0  0  0  0  0  0  0  0  0  0  0  0
    4.3850   -9.0730   28.6745 C   0  0  0  0  0  0  0  0  0  0  0  0
  1  7  4  0
  1 22  4  0
  2 17  4  0
  2 20  4  0
  2 28  4  0
  3  6  1  0
  3 19  1  0
  4 19  1  0
  4 26  1  0
  5 17  4  0
  5 18  4  0
  6 20  1  0
  6 26  1  0
  7 24  4  0
  8 15  4  0
  8 24  4  0
  9 14  4  0
  9 21  4  0
 10 12  4  0
 10 27  4  0
 11 12  4  0
 11 23  4  0
 13 23  4  0
 13 27  4  0
 14 20  4  0
 15 22  4  0
 16 18  4  0
 16 25  2  0
 16 28  4  0
 21 28  4  0
 24 27  1  0
M  END
$$$$

 Created by Python create_sdf_string function

 28 31  0  0  0  0  0  0  0  0999 V2000
   -1.0054  -13.0622   19.1198 C   0  0  0  0  0  0  0  0  0  0  0  0
    3.1478   -8.5360   28.5161 C   0  0  0  0  0  0  0  0  0  0  0  0
    0.5798   -7.1906   27.9330 C   0  0  0  0  0  0  0  0  0  0  0  0
    0.3978   -5.1561   26.6955 C   0  0  0  0  0  0  0  0  0  0  0  0
    2.3063  -10.0533   30.0125 C   0  0  0  0  0  0  0  0  0  0  0  0
    1.8591   -6.8254   27.4685 N   0  0  0  0  0  0  0  0  0  0  0  0
   -0.2167  -12.1055   18.5568 C   0  0  0  0  0  0  0  0  0  0  0  0
   -2.0661  -10.6994   18.1916 C   0  0  0  0  0  0  0  0  0  0  0  0
    5.2703   -7.5691   27.1123 C   0  0  0  0  0  0  0  0  0  0  0  0
    1.6204   -9.9887   17.2935 C   0  0  0  0  0  0  0  0  0  0  0  0
    1.8931   -7.9265   16.2047 C   0  0  0  0  0  0  0  0  0  0  0  0
    2.4396   -9.0801   16.7132 C   0  0  0  0  0  0  0  0  0  0  0  0
   -0.2575   -8.6234   16.8582 C   0  0  0  0  0  0  0  0  0  0  0  0
    4.0614   -7.0367   27.0106 N   0  0  0  0  0  0  0  0  0  0  0  0
   -2.9133  -11.6279   18.7578 C   0  0  0  0  0  0  0  0  0  0  0  0
    4.5688  -10.1291   29.5758 C   0  0  0  0  0  0  0  0  0  0  0  0
    2.1008   -9.0410   29.1852 N   0  0  0  0  0  0  0  0  0  0  0  0
    3.4829  -10.5697   30.2091 N   0  0  0  0  0  0  0  0  0  0  0  0
   -0.3363   -6.1172   27.5628 C   0  0  0  0  0  0  0  0  0  0  0  0
    3.0331   -7.4400   27.6362 C   0  0  0  0  0  0  0  0  0  0  0  0
    5.4553   -8.5933   27.9644 C   0  0  0  0  0  0  0  0  0  0  0  0
   -2.3870  -12.8440   19.2512 C   0  0  0  0  0  0  0  0  0  0  0  0
    0.5331   -7.6964   16.2751 C   0  0  0  0  0  0  0  0  0  0  0  0
   -0.6740  -10.8737   18.0482 C   0  0  0  0  0  0  0  0  0  0  0  0
    5.6751  -10.5870   29.7637 O   0  0  0  0  0  0  0  0  0  0  0  0
    1.7612   -5.6483   26.7172 C   0  0  0  0  0  0  0  0  0  0  0  0
    0.2221   -9.8326   17.4055 C   0  0  0  0  0  0  0  0  0  0  0  0
    4.3850   -9.0730   28.6745 C   0  0  0  0  0  0  0  0  0  0  0  0
  1  7  4  0
  1 22  4  0
  2 17  4  0
  2 20  4  0
  2 28  4  0
  3  6  1  0
  3 19  1  0
  4 19  1  0
  4 26  1  0
  5 17  4  0
  5 18  4  0
  6 20  1  0
  6 26  1  0
  7 24  4  0
  8 15  4  0
  8 24  4  0
  9 14  4  0
  9 21  4  0
 10 12  4  0
 10 27  4  0
 11 12  4  0
 11 23  4  0
 13 23  4  0
 13 27  4  0
 14 20  4  0
 15 22  4  0
 16 18  4  0
 16 25  2  0
 16 28  4  0
 21 28  4  0
 24 27  1  0
M  END
$$$$

 Created by Python create_sdf_string function

 28 31  0  0  0  0  0  0  0  0999 V2000
   -1.0054  -13.0622   19.1198 C   0  0  0  0  0  0  0  0  0  0  0  0
    3.1478   -8.5360   28.5161 C   0  0  0  0  0  0  0  0  0  0  0  0
    0.5798   -7.1906   27.9330 C   0  0  0  0  0  0  0  0  0  0  0  0
    0.3978   -5.1561   26.6955 C   0  0  0  0  0  0  0  0  0  0  0  0
    2.3063  -10.0533   30.0125 C   0  0  0  0  0  0  0  0  0  0  0  0
    1.8591   -6.8254   27.4685 N   0  0  0  0  0  0  0  0  0  0  0  0
   -0.2167  -12.1055   18.5568 C   0  0  0  0  0  0  0  0  0  0  0  0
   -2.0661  -10.6994   18.1916 C   0  0  0  0  0  0  0  0  0  0  0  0
    5.2703   -7.5691   27.1123 C   0  0  0  0  0  0  0  0  0  0  0  0
    1.6204   -9.9887   17.2935 C   0  0  0  0  0  0  0  0  0  0  0  0
    1.8931   -7.9265   16.2047 C   0  0  0  0  0  0  0  0  0  0  0  0
    2.4396   -9.0801   16.7132 C   0  0  0  0  0  0  0  0  0  0  0  0
   -0.2575   -8.6234   16.8582 C   0  0  0  0  0  0  0  0  0  0  0  0
    4.0614   -7.0367   27.0106 N   0  0  0  0  0  0  0  0  0  0  0  0
   -2.9133  -11.6279   18.7578 C   0  0  0  0  0  0  0  0  0  0  0  0
    4.5688  -10.1291   29.5758 C   0  0  0  0  0  0  0  0  0  0  0  0
    2.1008   -9.0410   29.1852 N   0  0  0  0  0  0  0  0  0  0  0  0
    3.4829  -10.5697   30.2091 N   0  0  0  0  0  0  0  0  0  0  0  0
   -0.3363   -6.1172   27.5628 C   0  0  0  0  0  0  0  0  0  0  0  0
    3.0331   -7.4400   27.6362 C   0  0  0  0  0  0  0  0  0  0  0  0
    5.4553   -8.5933   27.9644 C   0  0  0  0  0  0  0  0  0  0  0  0
   -2.3870  -12.8440   19.2512 C   0  0  0  0  0  0  0  0  0  0  0  0
    0.5331   -7.6964   16.2751 C   0  0  0  0  0  0  0  0  0  0  0  0
   -0.6740  -10.8737   18.0482 C   0  0  0  0  0  0  0  0  0  0  0  0
    5.6751  -10.5870   29.7637 O   0  0  0  0  0  0  0  0  0  0  0  0
    1.7612   -5.6483   26.7172 C   0  0  0  0  0  0  0  0  0  0  0  0
    0.2221   -9.8326   17.4055 C   0  0  0  0  0  0  0  0  0  0  0  0
    4.3850   -9.0730   28.6745 C   0  0  0  0  0  0  0  0  0  0  0  0
  1  7  4  0
  1 22  4  0
  2 17  4  0
  2 20  4  0
  2 28  4  0
  3  6  1  0
  3 19  1  0
  4 19  1  0
  4 26  1  0
  5 17  4  0
  5 18  4  0
  6 20  1  0
  6 26  1  0
  7 24  4  0
  8 15  4  0
  8 24  4  0
  9 14  4  0
  9 21  4  0
 10 12  4  0
 10 27  4  0
 11 12  4  0
 11 23  4  0
 13 23  4  0
 13 27  4  0
 14 20  4  0
 15 22  4  0
 16 18  4  0
 16 25  2  0
 16 28  4  0
 21 28  4  0
 24 27  1  0
M  END
$$$$

 Created by Python create_sdf_string function

 28 31  0  0  0  0  0  0  0  0999 V2000
   -1.0054  -13.0622   19.1198 C   0  0  0  0  0  0  0  0  0  0  0  0
    3.1478   -8.5360   28.5161 C   0  0  0  0  0  0  0  0  0  0  0  0
    0.5798   -7.1906   27.9330 C   0  0  0  0  0  0  0  0  0  0  0  0
    0.3978   -5.1561   26.6955 C   0  0  0  0  0  0  0  0  0  0  0  0
    2.3063  -10.0533   30.0125 C   0  0  0  0  0  0  0  0  0  0  0  0
    1.8591   -6.8254   27.4685 N   0  0  0  0  0  0  0  0  0  0  0  0
   -0.2167  -12.1055   18.5568 C   0  0  0  0  0  0  0  0  0  0  0  0
   -2.0661  -10.6994   18.1916 C   0  0  0  0  0  0  0  0  0  0  0  0
    5.2703   -7.5691   27.1123 C   0  0  0  0  0  0  0  0  0  0  0  0
    1.6204   -9.9887   17.2935 C   0  0  0  0  0  0  0  0  0  0  0  0
    1.8931   -7.9265   16.2047 C   0  0  0  0  0  0  0  0  0  0  0  0
    2.4396   -9.0801   16.7132 C   0  0  0  0  0  0  0  0  0  0  0  0
   -0.2575   -8.6234   16.8582 C   0  0  0  0  0  0  0  0  0  0  0  0
    4.0614   -7.0367   27.0106 N   0  0  0  0  0  0  0  0  0  0  0  0
   -2.9133  -11.6279   18.7578 C   0  0  0  0  0  0  0  0  0  0  0  0
    4.5688  -10.1291   29.5758 C   0  0  0  0  0  0  0  0  0  0  0  0
    2.1008   -9.0410   29.1852 N   0  0  0  0  0  0  0  0  0  0  0  0
    3.4829  -10.5697   30.2091 N   0  0  0  0  0  0  0  0  0  0  0  0
   -0.3363   -6.1172   27.5628 C   0  0  0  0  0  0  0  0  0  0  0  0
    3.0331   -7.4400   27.6362 C   0  0  0  0  0  0  0  0  0  0  0  0
    5.4553   -8.5933   27.9644 C   0  0  0  0  0  0  0  0  0  0  0  0
   -2.3870  -12.8440   19.2512 C   0  0  0  0  0  0  0  0  0  0  0  0
    0.5331   -7.6964   16.2751 C   0  0  0  0  0  0  0  0  0  0  0  0
   -0.6740  -10.8737   18.0482 C   0  0  0  0  0  0  0  0  0  0  0  0
    5.6751  -10.5870   29.7637 O   0  0  0  0  0  0  0  0  0  0  0  0
    1.7612   -5.6483   26.7172 C   0  0  0  0  0  0  0  0  0  0  0  0
    0.2221   -9.8326   17.4055 C   0  0  0  0  0  0  0  0  0  0  0  0
    4.3850   -9.0730   28.6745 C   0  0  0  0  0  0  0  0  0  0  0  0
  1  7  4  0
  1 22  4  0
  2 17  4  0
  2 20  4  0
  2 28  4  0
  3  6  1  0
  3 19  1  0
  4 19  1  0
  4 26  1  0
  5 17  4  0
  5 18  4  0
  6 20  1  0
  6 26  1  0
  7 24  4  0
  8 15  4  0
  8 24  4  0
  9 14  4  0
  9 21  4  0
 10 12  4  0
 10 27  4  0
 11 12  4  0
 11 23  4  0
 13 23  4  0
 13 27  4  0
 14 20  4  0
 15 22  4  0
 16 18  4  0
 16 25  2  0
 16 28  4  0
 21 28  4  0
 24 27  1  0
M  END
$$$$

 Created by Python create_sdf_string function

 28 31  0  0  0  0  0  0  0  0999 V2000
   -1.0054  -13.0622   19.1198 C   0  0  0  0  0  0  0  0  0  0  0  0
    3.1478   -8.5360   28.5161 C   0  0  0  0  0  0  0  0  0  0  0  0
    0.5798   -7.1906   27.9330 C   0  0  0  0  0  0  0  0  0  0  0  0
    0.3978   -5.1561   26.6955 C   0  0  0  0  0  0  0  0  0  0  0  0
    2.3063  -10.0533   30.0125 C   0  0  0  0  0  0  0  0  0  0  0  0
    1.8591   -6.8254   27.4685 N   0  0  0  0  0  0  0  0  0  0  0  0
   -0.2167  -12.1055   18.5568 C   0  0  0  0  0  0  0  0  0  0  0  0
   -2.0661  -10.6994   18.1916 C   0  0  0  0  0  0  0  0  0  0  0  0
    5.2703   -7.5691   27.1123 C   0  0  0  0  0  0  0  0  0  0  0  0
    1.6204   -9.9887   17.2935 C   0  0  0  0  0  0  0  0  0  0  0  0
    1.8931   -7.9265   16.2047 C   0  0  0  0  0  0  0  0  0  0  0  0
    2.4396   -9.0801   16.7132 C   0  0  0  0  0  0  0  0  0  0  0  0
   -0.2575   -8.6234   16.8582 C   0  0  0  0  0  0  0  0  0  0  0  0
    4.0614   -7.0367   27.0106 N   0  0  0  0  0  0  0  0  0  0  0  0
   -2.9133  -11.6279   18.7578 C   0  0  0  0  0  0  0  0  0  0  0  0
    4.5688  -10.1291   29.5758 C   0  0  0  0  0  0  0  0  0  0  0  0
    2.1008   -9.0410   29.1852 N   0  0  0  0  0  0  0  0  0  0  0  0
    3.4829  -10.5697   30.2091 N   0  0  0  0  0  0  0  0  0  0  0  0
   -0.3363   -6.1172   27.5628 C   0  0  0  0  0  0  0  0  0  0  0  0
    3.0331   -7.4400   27.6362 C   0  0  0  0  0  0  0  0  0  0  0  0
    5.4553   -8.5933   27.9644 C   0  0  0  0  0  0  0  0  0  0  0  0
   -2.3870  -12.8440   19.2512 C   0  0  0  0  0  0  0  0  0  0  0  0
    0.5331   -7.6964   16.2751 C   0  0  0  0  0  0  0  0  0  0  0  0
   -0.6740  -10.8737   18.0482 C   0  0  0  0  0  0  0  0  0  0  0  0
    5.6751  -10.5870   29.7637 O   0  0  0  0  0  0  0  0  0  0  0  0
    1.7612   -5.6483   26.7172 C   0  0  0  0  0  0  0  0  0  0  0  0
    0.2221   -9.8326   17.4055 C   0  0  0  0  0  0  0  0  0  0  0  0
    4.3850   -9.0730   28.6745 C   0  0  0  0  0  0  0  0  0  0  0  0
  1  7  4  0
  1 22  4  0
  2 17  4  0
  2 20  4  0
  2 28  4  0
  3  6  1  0
  3 19  1  0
  4 19  1  0
  4 26  1  0
  5 17  4  0
  5 18  4  0
  6 20  1  0
  6 26  1  0
  7 24  4  0
  8 15  4  0
  8 24  4  0
  9 14  4  0
  9 21  4  0
 10 12  4  0
 10 27  4  0
 11 12  4  0
 11 23  4  0
 13 23  4  0
 13 27  4  0
 14 20  4  0
 15 22  4  0
 16 18  4  0
 16 25  2  0
 16 28  4  0
 21 28  4  0
 24 27  1  0
M  END
$$$$

 Created by Python create_sdf_string function

 28 31  0  0  0  0  0  0  0  0999 V2000
   -1.0054  -13.0622   19.1198 C   0  0  0  0  0  0  0  0  0  0  0  0
    3.1478   -8.5360   28.5161 C   0  0  0  0  0  0  0  0  0  0  0  0
    0.5798   -7.1906   27.9330 C   0  0  0  0  0  0  0  0  0  0  0  0
    0.3978   -5.1561   26.6955 C   0  0  0  0  0  0  0  0  0  0  0  0
    2.3063  -10.0533   30.0125 C   0  0  0  0  0  0  0  0  0  0  0  0
    1.8591   -6.8254   27.4685 N   0  0  0  0  0  0  0  0  0  0  0  0
   -0.2167  -12.1055   18.5568 C   0  0  0  0  0  0  0  0  0  0  0  0
   -2.0661  -10.6994   18.1916 C   0  0  0  0  0  0  0  0  0  0  0  0
    5.2703   -7.5691   27.1123 C   0  0  0  0  0  0  0  0  0  0  0  0
    1.6204   -9.9887   17.2935 C   0  0  0  0  0  0  0  0  0  0  0  0
    1.8931   -7.9265   16.2047 C   0  0  0  0  0  0  0  0  0  0  0  0
    2.4396   -9.0801   16.7132 C   0  0  0  0  0  0  0  0  0  0  0  0
   -0.2575   -8.6234   16.8582 C   0  0  0  0  0  0  0  0  0  0  0  0
    4.0614   -7.0367   27.0106 N   0  0  0  0  0  0  0  0  0  0  0  0
   -2.9133  -11.6279   18.7578 C   0  0  0  0  0  0  0  0  0  0  0  0
    4.5688  -10.1291   29.5758 C   0  0  0  0  0  0  0  0  0  0  0  0
    2.1008   -9.0410   29.1852 N   0  0  0  0  0  0  0  0  0  0  0  0
    3.4829  -10.5697   30.2091 N   0  0  0  0  0  0  0  0  0  0  0  0
   -0.3363   -6.1172   27.5628 C   0  0  0  0  0  0  0  0  0  0  0  0
    3.0331   -7.4400   27.6362 C   0  0  0  0  0  0  0  0  0  0  0  0
    5.4553   -8.5933   27.9644 C   0  0  0  0  0  0  0  0  0  0  0  0
   -2.3870  -12.8440   19.2512 C   0  0  0  0  0  0  0  0  0  0  0  0
    0.5331   -7.6964   16.2751 C   0  0  0  0  0  0  0  0  0  0  0  0
   -0.6740  -10.8737   18.0482 C   0  0  0  0  0  0  0  0  0  0  0  0
    5.6751  -10.5870   29.7637 O   0  0  0  0  0  0  0  0  0  0  0  0
    1.7612   -5.6483   26.7172 C   0  0  0  0  0  0  0  0  0  0  0  0
    0.2221   -9.8326   17.4055 C   0  0  0  0  0  0  0  0  0  0  0  0
    4.3850   -9.0730   28.6745 C   0  0  0  0  0  0  0  0  0  0  0  0
  1  7  4  0
  1 22  4  0
  2 17  4  0
  2 20  4  0
  2 28  4  0
  3  6  1  0
  3 19  1  0
  4 19  1  0
  4 26  1  0
  5 17  4  0
  5 18  4  0
  6 20  1  0
  6 26  1  0
  7 24  4  0
  8 15  4  0
  8 24  4  0
  9 14  4  0
  9 21  4  0
 10 12  4  0
 10 27  4  0
 11 12  4  0
 11 23  4  0
 13 23  4  0
 13 27  4  0
 14 20  4  0
 15 22  4  0
 16 18  4  0
 16 25  2  0
 16 28  4  0
 21 28  4  0
 24 27  1  0
M  END
$$$$

 Created by Python create_sdf_string function

 28 31  0  0  0  0  0  0  0  0999 V2000
   -1.0054  -13.0622   19.1198 C   0  0  0  0  0  0  0  0  0  0  0  0
    3.1478   -8.5360   28.5161 C   0  0  0  0  0  0  0  0  0  0  0  0
    0.5798   -7.1906   27.9330 C   0  0  0  0  0  0  0  0  0  0  0  0
    0.3978   -5.1561   26.6955 C   0  0  0  0  0  0  0  0  0  0  0  0
    2.3063  -10.0533   30.0125 C   0  0  0  0  0  0  0  0  0  0  0  0
    1.8591   -6.8254   27.4685 N   0  0  0  0  0  0  0  0  0  0  0  0
   -0.2167  -12.1055   18.5568 C   0  0  0  0  0  0  0  0  0  0  0  0
   -2.0661  -10.6994   18.1916 C   0  0  0  0  0  0  0  0  0  0  0  0
    5.2703   -7.5691   27.1123 C   0  0  0  0  0  0  0  0  0  0  0  0
    1.6204   -9.9887   17.2935 C   0  0  0  0  0  0  0  0  0  0  0  0
    1.8931   -7.9265   16.2047 C   0  0  0  0  0  0  0  0  0  0  0  0
    2.4396   -9.0801   16.7132 C   0  0  0  0  0  0  0  0  0  0  0  0
   -0.2575   -8.6234   16.8582 C   0  0  0  0  0  0  0  0  0  0  0  0
    4.0614   -7.0367   27.0106 N   0  0  0  0  0  0  0  0  0  0  0  0
   -2.9133  -11.6279   18.7578 C   0  0  0  0  0  0  0  0  0  0  0  0
    4.5688  -10.1291   29.5758 C   0  0  0  0  0  0  0  0  0  0  0  0
    2.1008   -9.0410   29.1852 N   0  0  0  0  0  0  0  0  0  0  0  0
    3.4829  -10.5697   30.2091 N   0  0  0  0  0  0  0  0  0  0  0  0
   -0.3363   -6.1172   27.5628 C   0  0  0  0  0  0  0  0  0  0  0  0
    3.0331   -7.4400   27.6362 C   0  0  0  0  0  0  0  0  0  0  0  0
    5.4553   -8.5933   27.9644 C   0  0  0  0  0  0  0  0  0  0  0  0
   -2.3870  -12.8440   19.2512 C   0  0  0  0  0  0  0  0  0  0  0  0
    0.5331   -7.6964   16.2751 C   0  0  0  0  0  0  0  0  0  0  0  0
   -0.6740  -10.8737   18.0482 C   0  0  0  0  0  0  0  0  0  0  0  0
    5.6751  -10.5870   29.7637 O   0  0  0  0  0  0  0  0  0  0  0  0
    1.7612   -5.6483   26.7172 C   0  0  0  0  0  0  0  0  0  0  0  0
    0.2221   -9.8326   17.4055 C   0  0  0  0  0  0  0  0  0  0  0  0
    4.3850   -9.0730   28.6745 C   0  0  0  0  0  0  0  0  0  0  0  0
  1  7  4  0
  1 22  4  0
  2 17  4  0
  2 20  4  0
  2 28  4  0
  3  6  1  0
  3 19  1  0
  4 19  1  0
  4 26  1  0
  5 17  4  0
  5 18  4  0
  6 20  1  0
  6 26  1  0
  7 24  4  0
  8 15  4  0
  8 24  4  0
  9 14  4  0
  9 21  4  0
 10 12  4  0
 10 27  4  0
 11 12  4  0
 11 23  4  0
 13 23  4  0
 13 27  4  0
 14 20  4  0
 15 22  4  0
 16 18  4  0
 16 25  2  0
 16 28  4  0
 21 28  4  0
 24 27  1  0
M  END
$$$$

 Created by Python create_sdf_string function

 28 31  0  0  0  0  0  0  0  0999 V2000
   -1.0054  -13.0622   19.1198 C   0  0  0  0  0  0  0  0  0  0  0  0
    3.1478   -8.5360   28.5161 C   0  0  0  0  0  0  0  0  0  0  0  0
    0.5798   -7.1906   27.9330 C   0  0  0  0  0  0  0  0  0  0  0  0
    0.3978   -5.1561   26.6955 C   0  0  0  0  0  0  0  0  0  0  0  0
    2.3063  -10.0533   30.0125 C   0  0  0  0  0  0  0  0  0  0  0  0
    1.8591   -6.8254   27.4685 N   0  0  0  0  0  0  0  0  0  0  0  0
   -0.2167  -12.1055   18.5568 C   0  0  0  0  0  0  0  0  0  0  0  0
   -2.0661  -10.6994   18.1916 C   0  0  0  0  0  0  0  0  0  0  0  0
    5.2703   -7.5691   27.1123 C   0  0  0  0  0  0  0  0  0  0  0  0
    1.6204   -9.9887   17.2935 C   0  0  0  0  0  0  0  0  0  0  0  0
    1.8931   -7.9265   16.2047 C   0  0  0  0  0  0  0  0  0  0  0  0
    2.4396   -9.0801   16.7132 C   0  0  0  0  0  0  0  0  0  0  0  0
   -0.2575   -8.6234   16.8582 C   0  0  0  0  0  0  0  0  0  0  0  0
    4.0614   -7.0367   27.0106 N   0  0  0  0  0  0  0  0  0  0  0  0
   -2.9133  -11.6279   18.7578 C   0  0  0  0  0  0  0  0  0  0  0  0
    4.5688  -10.1291   29.5758 C   0  0  0  0  0  0  0  0  0  0  0  0
    2.1008   -9.0410   29.1852 N   0  0  0  0  0  0  0  0  0  0  0  0
    3.4829  -10.5697   30.2091 N   0  0  0  0  0  0  0  0  0  0  0  0
   -0.3363   -6.1172   27.5628 C   0  0  0  0  0  0  0  0  0  0  0  0
    3.0331   -7.4400   27.6362 C   0  0  0  0  0  0  0  0  0  0  0  0
    5.4553   -8.5933   27.9644 C   0  0  0  0  0  0  0  0  0  0  0  0
   -2.3870  -12.8440   19.2512 C   0  0  0  0  0  0  0  0  0  0  0  0
    0.5331   -7.6964   16.2751 C   0  0  0  0  0  0  0  0  0  0  0  0
   -0.6740  -10.8737   18.0482 C   0  0  0  0  0  0  0  0  0  0  0  0
    5.6751  -10.5870   29.7637 O   0  0  0  0  0  0  0  0  0  0  0  0
    1.7612   -5.6483   26.7172 C   0  0  0  0  0  0  0  0  0  0  0  0
    0.2221   -9.8326   17.4055 C   0  0  0  0  0  0  0  0  0  0  0  0
    4.3850   -9.0730   28.6745 C   0  0  0  0  0  0  0  0  0  0  0  0
  1  7  4  0
  1 22  4  0
  2 17  4  0
  2 20  4  0
  2 28  4  0
  3  6  1  0
  3 19  1  0
  4 19  1  0
  4 26  1  0
  5 17  4  0
  5 18  4  0
  6 20  1  0
  6 26  1  0
  7 24  4  0
  8 15  4  0
  8 24  4  0
  9 14  4  0
  9 21  4  0
 10 12  4  0
 10 27  4  0
 11 12  4  0
 11 23  4  0
 13 23  4  0
 13 27  4  0
 14 20  4  0
 15 22  4  0
 16 18  4  0
 16 25  2  0
 16 28  4  0
 21 28  4  0
 24 27  1  0
M  END
$$$$

 Created by Python create_sdf_string function

 28 31  0  0  0  0  0  0  0  0999 V2000
   -1.0054  -13.0622   19.1198 C   0  0  0  0  0  0  0  0  0  0  0  0
    3.1478   -8.5360   28.5161 C   0  0  0  0  0  0  0  0  0  0  0  0
    0.5798   -7.1906   27.9330 C   0  0  0  0  0  0  0  0  0  0  0  0
    0.3978   -5.1561   26.6955 C   0  0  0  0  0  0  0  0  0  0  0  0
    2.3063  -10.0533   30.0125 C   0  0  0  0  0  0  0  0  0  0  0  0
    1.8591   -6.8254   27.4685 N   0  0  0  0  0  0  0  0  0  0  0  0
   -0.2167  -12.1055   18.5568 C   0  0  0  0  0  0  0  0  0  0  0  0
   -2.0661  -10.6994   18.1916 C   0  0  0  0  0  0  0  0  0  0  0  0
    5.2703   -7.5691   27.1123 C   0  0  0  0  0  0  0  0  0  0  0  0
    1.6204   -9.9887   17.2935 C   0  0  0  0  0  0  0  0  0  0  0  0
    1.8931   -7.9265   16.2047 C   0  0  0  0  0  0  0  0  0  0  0  0
    2.4396   -9.0801   16.7132 C   0  0  0  0  0  0  0  0  0  0  0  0
   -0.2575   -8.6234   16.8582 C   0  0  0  0  0  0  0  0  0  0  0  0
    4.0614   -7.0367   27.0106 N   0  0  0  0  0  0  0  0  0  0  0  0
   -2.9133  -11.6279   18.7578 C   0  0  0  0  0  0  0  0  0  0  0  0
    4.5688  -10.1291   29.5758 C   0  0  0  0  0  0  0  0  0  0  0  0
    2.1008   -9.0410   29.1852 N   0  0  0  0  0  0  0  0  0  0  0  0
    3.4829  -10.5697   30.2091 N   0  0  0  0  0  0  0  0  0  0  0  0
   -0.3363   -6.1172   27.5628 C   0  0  0  0  0  0  0  0  0  0  0  0
    3.0331   -7.4400   27.6362 C   0  0  0  0  0  0  0  0  0  0  0  0
    5.4553   -8.5933   27.9644 C   0  0  0  0  0  0  0  0  0  0  0  0
   -2.3870  -12.8440   19.2512 C   0  0  0  0  0  0  0  0  0  0  0  0
    0.5331   -7.6964   16.2751 C   0  0  0  0  0  0  0  0  0  0  0  0
   -0.6740  -10.8737   18.0482 C   0  0  0  0  0  0  0  0  0  0  0  0
    5.6751  -10.5870   29.7637 O   0  0  0  0  0  0  0  0  0  0  0  0
    1.7612   -5.6483   26.7172 C   0  0  0  0  0  0  0  0  0  0  0  0
    0.2221   -9.8326   17.4055 C   0  0  0  0  0  0  0  0  0  0  0  0
    4.3850   -9.0730   28.6745 C   0  0  0  0  0  0  0  0  0  0  0  0
  1  7  4  0
  1 22  4  0
  2 17  4  0
  2 20  4  0
  2 28  4  0
  3  6  1  0
  3 19  1  0
  4 19  1  0
  4 26  1  0
  5 17  4  0
  5 18  4  0
  6 20  1  0
  6 26  1  0
  7 24  4  0
  8 15  4  0
  8 24  4  0
  9 14  4  0
  9 21  4  0
 10 12  4  0
 10 27  4  0
 11 12  4  0
 11 23  4  0
 13 23  4  0
 13 27  4  0
 14 20  4  0
 15 22  4  0
 16 18  4  0
 16 25  2  0
 16 28  4  0
 21 28  4  0
 24 27  1  0
M  END
$$$$

 Created by Python create_sdf_string function

 28 31  0  0  0  0  0  0  0  0999 V2000
   -1.0054  -13.0622   19.1198 C   0  0  0  0  0  0  0  0  0  0  0  0
    3.1478   -8.5360   28.5161 C   0  0  0  0  0  0  0  0  0  0  0  0
    0.5798   -7.1906   27.9330 C   0  0  0  0  0  0  0  0  0  0  0  0
    0.3978   -5.1561   26.6955 C   0  0  0  0  0  0  0  0  0  0  0  0
    2.3063  -10.0533   30.0125 C   0  0  0  0  0  0  0  0  0  0  0  0
    1.8591   -6.8254   27.4685 N   0  0  0  0  0  0  0  0  0  0  0  0
   -0.2167  -12.1055   18.5568 C   0  0  0  0  0  0  0  0  0  0  0  0
   -2.0661  -10.6994   18.1916 C   0  0  0  0  0  0  0  0  0  0  0  0
    5.2703   -7.5691   27.1123 C   0  0  0  0  0  0  0  0  0  0  0  0
    1.6204   -9.9887   17.2935 C   0  0  0  0  0  0  0  0  0  0  0  0
    1.8931   -7.9265   16.2047 C   0  0  0  0  0  0  0  0  0  0  0  0
    2.4396   -9.0801   16.7132 C   0  0  0  0  0  0  0  0  0  0  0  0
   -0.2575   -8.6234   16.8582 C   0  0  0  0  0  0  0  0  0  0  0  0
    4.0614   -7.0367   27.0106 N   0  0  0  0  0  0  0  0  0  0  0  0
   -2.9133  -11.6279   18.7578 C   0  0  0  0  0  0  0  0  0  0  0  0
    4.5688  -10.1291   29.5758 C   0  0  0  0  0  0  0  0  0  0  0  0
    2.1008   -9.0410   29.1852 N   0  0  0  0  0  0  0  0  0  0  0  0
    3.4829  -10.5697   30.2091 N   0  0  0  0  0  0  0  0  0  0  0  0
   -0.3363   -6.1172   27.5628 C   0  0  0  0  0  0  0  0  0  0  0  0
    3.0331   -7.4400   27.6362 C   0  0  0  0  0  0  0  0  0  0  0  0
    5.4553   -8.5933   27.9644 C   0  0  0  0  0  0  0  0  0  0  0  0
   -2.3870  -12.8440   19.2512 C   0  0  0  0  0  0  0  0  0  0  0  0
    0.5331   -7.6964   16.2751 C   0  0  0  0  0  0  0  0  0  0  0  0
   -0.6740  -10.8737   18.0482 C   0  0  0  0  0  0  0  0  0  0  0  0
    5.6751  -10.5870   29.7637 O   0  0  0  0  0  0  0  0  0  0  0  0
    1.7612   -5.6483   26.7172 C   0  0  0  0  0  0  0  0  0  0  0  0
    0.2221   -9.8326   17.4055 C   0  0  0  0  0  0  0  0  0  0  0  0
    4.3850   -9.0730   28.6745 C   0  0  0  0  0  0  0  0  0  0  0  0
  1  7  4  0
  1 22  4  0
  2 17  4  0
  2 20  4  0
  2 28  4  0
  3  6  1  0
  3 19  1  0
  4 19  1  0
  4 26  1  0
  5 17  4  0
  5 18  4  0
  6 20  1  0
  6 26  1  0
  7 24  4  0
  8 15  4  0
  8 24  4  0
  9 14  4  0
  9 21  4  0
 10 12  4  0
 10 27  4  0
 11 12  4  0
 11 23  4  0
 13 23  4  0
 13 27  4  0
 14 20  4  0
 15 22  4  0
 16 18  4  0
 16 25  2  0
 16 28  4  0
 21 28  4  0
 24 27  1  0
M  END
$$$$

 Created by Python create_sdf_string function

 28 31  0  0  0  0  0  0  0  0999 V2000
   -1.0054  -13.0622   19.1198 C   0  0  0  0  0  0  0  0  0  0  0  0
    3.1478   -8.5360   28.5161 C   0  0  0  0  0  0  0  0  0  0  0  0
    0.5798   -7.1906   27.9330 C   0  0  0  0  0  0  0  0  0  0  0  0
    0.3978   -5.1561   26.6955 C   0  0  0  0  0  0  0  0  0  0  0  0
    2.3063  -10.0533   30.0125 C   0  0  0  0  0  0  0  0  0  0  0  0
    1.8591   -6.8254   27.4685 N   0  0  0  0  0  0  0  0  0  0  0  0
   -0.2167  -12.1055   18.5568 C   0  0  0  0  0  0  0  0  0  0  0  0
   -2.0661  -10.6994   18.1916 C   0  0  0  0  0  0  0  0  0  0  0  0
    5.2703   -7.5691   27.1123 C   0  0  0  0  0  0  0  0  0  0  0  0
    1.6204   -9.9887   17.2935 C   0  0  0  0  0  0  0  0  0  0  0  0
    1.8931   -7.9265   16.2047 C   0  0  0  0  0  0  0  0  0  0  0  0
    2.4396   -9.0801   16.7132 C   0  0  0  0  0  0  0  0  0  0  0  0
   -0.2575   -8.6234   16.8582 C   0  0  0  0  0  0  0  0  0  0  0  0
    4.0614   -7.0367   27.0106 N   0  0  0  0  0  0  0  0  0  0  0  0
   -2.9133  -11.6279   18.7578 C   0  0  0  0  0  0  0  0  0  0  0  0
    4.5688  -10.1291   29.5758 C   0  0  0  0  0  0  0  0  0  0  0  0
    2.1008   -9.0410   29.1852 N   0  0  0  0  0  0  0  0  0  0  0  0
    3.4829  -10.5697   30.2091 N   0  0  0  0  0  0  0  0  0  0  0  0
   -0.3363   -6.1172   27.5628 C   0  0  0  0  0  0  0  0  0  0  0  0
    3.0331   -7.4400   27.6362 C   0  0  0  0  0  0  0  0  0  0  0  0
    5.4553   -8.5933   27.9644 C   0  0  0  0  0  0  0  0  0  0  0  0
   -2.3870  -12.8440   19.2512 C   0  0  0  0  0  0  0  0  0  0  0  0
    0.5331   -7.6964   16.2751 C   0  0  0  0  0  0  0  0  0  0  0  0
   -0.6740  -10.8737   18.0482 C   0  0  0  0  0  0  0  0  0  0  0  0
    5.6751  -10.5870   29.7637 O   0  0  0  0  0  0  0  0  0  0  0  0
    1.7612   -5.6483   26.7172 C   0  0  0  0  0  0  0  0  0  0  0  0
    0.2221   -9.8326   17.4055 C   0  0  0  0  0  0  0  0  0  0  0  0
    4.3850   -9.0730   28.6745 C   0  0  0  0  0  0  0  0  0  0  0  0
  1  7  4  0
  1 22  4  0
  2 17  4  0
  2 20  4  0
  2 28  4  0
  3  6  1  0
  3 19  1  0
  4 19  1  0
  4 26  1  0
  5 17  4  0
  5 18  4  0
  6 20  1  0
  6 26  1  0
  7 24  4  0
  8 15  4  0
  8 24  4  0
  9 14  4  0
  9 21  4  0
 10 12  4  0
 10 27  4  0
 11 12  4  0
 11 23  4  0
 13 23  4  0
 13 27  4  0
 14 20  4  0
 15 22  4  0
 16 18  4  0
 16 25  2  0
 16 28  4  0
 21 28  4  0
 24 27  1  0
M  END
$$$$

 Created by Python create_sdf_string function

 28 31  0  0  0  0  0  0  0  0999 V2000
   -1.0054  -13.0622   19.1198 C   0  0  0  0  0  0  0  0  0  0  0  0
    3.1478   -8.5360   28.5161 C   0  0  0  0  0  0  0  0  0  0  0  0
    0.5798   -7.1906   27.9330 C   0  0  0  0  0  0  0  0  0  0  0  0
    0.3978   -5.1561   26.6955 C   0  0  0  0  0  0  0  0  0  0  0  0
    2.3063  -10.0533   30.0125 C   0  0  0  0  0  0  0  0  0  0  0  0
    1.8591   -6.8254   27.4685 N   0  0  0  0  0  0  0  0  0  0  0  0
   -0.2167  -12.1055   18.5568 C   0  0  0  0  0  0  0  0  0  0  0  0
   -2.0661  -10.6994   18.1916 C   0  0  0  0  0  0  0  0  0  0  0  0
    5.2703   -7.5691   27.1123 C   0  0  0  0  0  0  0  0  0  0  0  0
    1.6204   -9.9887   17.2935 C   0  0  0  0  0  0  0  0  0  0  0  0
    1.8931   -7.9265   16.2047 C   0  0  0  0  0  0  0  0  0  0  0  0
    2.4396   -9.0801   16.7132 C   0  0  0  0  0  0  0  0  0  0  0  0
   -0.2575   -8.6234   16.8582 C   0  0  0  0  0  0  0  0  0  0  0  0
    4.0614   -7.0367   27.0106 N   0  0  0  0  0  0  0  0  0  0  0  0
   -2.9133  -11.6279   18.7578 C   0  0  0  0  0  0  0  0  0  0  0  0
    4.5688  -10.1291   29.5758 C   0  0  0  0  0  0  0  0  0  0  0  0
    2.1008   -9.0410   29.1852 N   0  0  0  0  0  0  0  0  0  0  0  0
    3.4829  -10.5697   30.2091 N   0  0  0  0  0  0  0  0  0  0  0  0
   -0.3363   -6.1172   27.5628 C   0  0  0  0  0  0  0  0  0  0  0  0
    3.0331   -7.4400   27.6362 C   0  0  0  0  0  0  0  0  0  0  0  0
    5.4553   -8.5933   27.9644 C   0  0  0  0  0  0  0  0  0  0  0  0
   -2.3870  -12.8440   19.2512 C   0  0  0  0  0  0  0  0  0  0  0  0
    0.5331   -7.6964   16.2751 C   0  0  0  0  0  0  0  0  0  0  0  0
   -0.6740  -10.8737   18.0482 C   0  0  0  0  0  0  0  0  0  0  0  0
    5.6751  -10.5870   29.7637 O   0  0  0  0  0  0  0  0  0  0  0  0
    1.7612   -5.6483   26.7172 C   0  0  0  0  0  0  0  0  0  0  0  0
    0.2221   -9.8326   17.4055 C   0  0  0  0  0  0  0  0  0  0  0  0
    4.3850   -9.0730   28.6745 C   0  0  0  0  0  0  0  0  0  0  0  0
  1  7  4  0
  1 22  4  0
  2 17  4  0
  2 20  4  0
  2 28  4  0
  3  6  1  0
  3 19  1  0
  4 19  1  0
  4 26  1  0
  5 17  4  0
  5 18  4  0
  6 20  1  0
  6 26  1  0
  7 24  4  0
  8 15  4  0
  8 24  4  0
  9 14  4  0
  9 21  4  0
 10 12  4  0
 10 27  4  0
 11 12  4  0
 11 23  4  0
 13 23  4  0
 13 27  4  0
 14 20  4  0
 15 22  4  0
 16 18  4  0
 16 25  2  0
 16 28  4  0
 21 28  4  0
 24 27  1  0
M  END
$$$$

 Created by Python create_sdf_string function

 28 31  0  0  0  0  0  0  0  0999 V2000
   -1.0054  -13.0622   19.1198 C   0  0  0  0  0  0  0  0  0  0  0  0
    3.1478   -8.5360   28.5161 C   0  0  0  0  0  0  0  0  0  0  0  0
    0.5798   -7.1906   27.9330 C   0  0  0  0  0  0  0  0  0  0  0  0
    0.3978   -5.1561   26.6955 C   0  0  0  0  0  0  0  0  0  0  0  0
    2.3063  -10.0533   30.0125 C   0  0  0  0  0  0  0  0  0  0  0  0
    1.8591   -6.8254   27.4685 N   0  0  0  0  0  0  0  0  0  0  0  0
   -0.2167  -12.1055   18.5568 C   0  0  0  0  0  0  0  0  0  0  0  0
   -2.0661  -10.6994   18.1916 C   0  0  0  0  0  0  0  0  0  0  0  0
    5.2703   -7.5691   27.1123 C   0  0  0  0  0  0  0  0  0  0  0  0
    1.6204   -9.9887   17.2935 C   0  0  0  0  0  0  0  0  0  0  0  0
    1.8931   -7.9265   16.2047 C   0  0  0  0  0  0  0  0  0  0  0  0
    2.4396   -9.0801   16.7132 C   0  0  0  0  0  0  0  0  0  0  0  0
   -0.2575   -8.6234   16.8582 C   0  0  0  0  0  0  0  0  0  0  0  0
    4.0614   -7.0367   27.0106 N   0  0  0  0  0  0  0  0  0  0  0  0
   -2.9133  -11.6279   18.7578 C   0  0  0  0  0  0  0  0  0  0  0  0
    4.5688  -10.1291   29.5758 C   0  0  0  0  0  0  0  0  0  0  0  0
    2.1008   -9.0410   29.1852 N   0  0  0  0  0  0  0  0  0  0  0  0
    3.4829  -10.5697   30.2091 N   0  0  0  0  0  0  0  0  0  0  0  0
   -0.3363   -6.1172   27.5628 C   0  0  0  0  0  0  0  0  0  0  0  0
    3.0331   -7.4400   27.6362 C   0  0  0  0  0  0  0  0  0  0  0  0
    5.4553   -8.5933   27.9644 C   0  0  0  0  0  0  0  0  0  0  0  0
   -2.3870  -12.8440   19.2512 C   0  0  0  0  0  0  0  0  0  0  0  0
    0.5331   -7.6964   16.2751 C   0  0  0  0  0  0  0  0  0  0  0  0
   -0.6740  -10.8737   18.0482 C   0  0  0  0  0  0  0  0  0  0  0  0
    5.6751  -10.5870   29.7637 O   0  0  0  0  0  0  0  0  0  0  0  0
    1.7612   -5.6483   26.7172 C   0  0  0  0  0  0  0  0  0  0  0  0
    0.2221   -9.8326   17.4055 C   0  0  0  0  0  0  0  0  0  0  0  0
    4.3850   -9.0730   28.6745 C   0  0  0  0  0  0  0  0  0  0  0  0
  1  7  4  0
  1 22  4  0
  2 17  4  0
  2 20  4  0
  2 28  4  0
  3  6  1  0
  3 19  1  0
  4 19  1  0
  4 26  1  0
  5 17  4  0
  5 18  4  0
  6 20  1  0
  6 26  1  0
  7 24  4  0
  8 15  4  0
  8 24  4  0
  9 14  4  0
  9 21  4  0
 10 12  4  0
 10 27  4  0
 11 12  4  0
 11 23  4  0
 13 23  4  0
 13 27  4  0
 14 20  4  0
 15 22  4  0
 16 18  4  0
 16 25  2  0
 16 28  4  0
 21 28  4  0
 24 27  1  0
M  END
$$$$

 Created by Python create_sdf_string function

 28 31  0  0  0  0  0  0  0  0999 V2000
   -1.0054  -13.0622   19.1198 C   0  0  0  0  0  0  0  0  0  0  0  0
    3.1478   -8.5360   28.5161 C   0  0  0  0  0  0  0  0  0  0  0  0
    0.5798   -7.1906   27.9330 C   0  0  0  0  0  0  0  0  0  0  0  0
    0.3978   -5.1561   26.6955 C   0  0  0  0  0  0  0  0  0  0  0  0
    2.3063  -10.0533   30.0125 C   0  0  0  0  0  0  0  0  0  0  0  0
    1.8591   -6.8254   27.4685 N   0  0  0  0  0  0  0  0  0  0  0  0
   -0.2167  -12.1055   18.5568 C   0  0  0  0  0  0  0  0  0  0  0  0
   -2.0661  -10.6994   18.1916 C   0  0  0  0  0  0  0  0  0  0  0  0
    5.2703   -7.5691   27.1123 C   0  0  0  0  0  0  0  0  0  0  0  0
    1.6204   -9.9887   17.2935 C   0  0  0  0  0  0  0  0  0  0  0  0
    1.8931   -7.9265   16.2047 C   0  0  0  0  0  0  0  0  0  0  0  0
    2.4396   -9.0801   16.7132 C   0  0  0  0  0  0  0  0  0  0  0  0
   -0.2575   -8.6234   16.8582 C   0  0  0  0  0  0  0  0  0  0  0  0
    4.0614   -7.0367   27.0106 N   0  0  0  0  0  0  0  0  0  0  0  0
   -2.9133  -11.6279   18.7578 C   0  0  0  0  0  0  0  0  0  0  0  0
    4.5688  -10.1291   29.5758 C   0  0  0  0  0  0  0  0  0  0  0  0
    2.1008   -9.0410   29.1852 N   0  0  0  0  0  0  0  0  0  0  0  0
    3.4829  -10.5697   30.2091 N   0  0  0  0  0  0  0  0  0  0  0  0
   -0.3363   -6.1172   27.5628 C   0  0  0  0  0  0  0  0  0  0  0  0
    3.0331   -7.4400   27.6362 C   0  0  0  0  0  0  0  0  0  0  0  0
    5.4553   -8.5933   27.9644 C   0  0  0  0  0  0  0  0  0  0  0  0
   -2.3870  -12.8440   19.2512 C   0  0  0  0  0  0  0  0  0  0  0  0
    0.5331   -7.6964   16.2751 C   0  0  0  0  0  0  0  0  0  0  0  0
   -0.6740  -10.8737   18.0482 C   0  0  0  0  0  0  0  0  0  0  0  0
    5.6751  -10.5870   29.7637 O   0  0  0  0  0  0  0  0  0  0  0  0
    1.7612   -5.6483   26.7172 C   0  0  0  0  0  0  0  0  0  0  0  0
    0.2221   -9.8326   17.4055 C   0  0  0  0  0  0  0  0  0  0  0  0
    4.3850   -9.0730   28.6745 C   0  0  0  0  0  0  0  0  0  0  0  0
  1  7  4  0
  1 22  4  0
  2 17  4  0
  2 20  4  0
  2 28  4  0
  3  6  1  0
  3 19  1  0
  4 19  1  0
  4 26  1  0
  5 17  4  0
  5 18  4  0
  6 20  1  0
  6 26  1  0
  7 24  4  0
  8 15  4  0
  8 24  4  0
  9 14  4  0
  9 21  4  0
 10 12  4  0
 10 27  4  0
 11 12  4  0
 11 23  4  0
 13 23  4  0
 13 27  4  0
 14 20  4  0
 15 22  4  0
 16 18  4  0
 16 25  2  0
 16 28  4  0
 21 28  4  0
 24 27  1  0
M  END
$$$$

 Created by Python create_sdf_string function

 28 31  0  0  0  0  0  0  0  0999 V2000
   -1.0054  -13.0622   19.1198 C   0  0  0  0  0  0  0  0  0  0  0  0
    3.1478   -8.5360   28.5161 C   0  0  0  0  0  0  0  0  0  0  0  0
    0.5798   -7.1906   27.9330 C   0  0  0  0  0  0  0  0  0  0  0  0
    0.3978   -5.1561   26.6955 C   0  0  0  0  0  0  0  0  0  0  0  0
    2.3063  -10.0533   30.0125 C   0  0  0  0  0  0  0  0  0  0  0  0
    1.8591   -6.8254   27.4685 N   0  0  0  0  0  0  0  0  0  0  0  0
   -0.2167  -12.1055   18.5568 C   0  0  0  0  0  0  0  0  0  0  0  0
   -2.0661  -10.6994   18.1916 C   0  0  0  0  0  0  0  0  0  0  0  0
    5.2703   -7.5691   27.1123 C   0  0  0  0  0  0  0  0  0  0  0  0
    1.6204   -9.9887   17.2935 C   0  0  0  0  0  0  0  0  0  0  0  0
    1.8931   -7.9265   16.2047 C   0  0  0  0  0  0  0  0  0  0  0  0
    2.4396   -9.0801   16.7132 C   0  0  0  0  0  0  0  0  0  0  0  0
   -0.2575   -8.6234   16.8582 C   0  0  0  0  0  0  0  0  0  0  0  0
    4.0614   -7.0367   27.0106 N   0  0  0  0  0  0  0  0  0  0  0  0
   -2.9133  -11.6279   18.7578 C   0  0  0  0  0  0  0  0  0  0  0  0
    4.5688  -10.1291   29.5758 C   0  0  0  0  0  0  0  0  0  0  0  0
    2.1008   -9.0410   29.1852 N   0  0  0  0  0  0  0  0  0  0  0  0
    3.4829  -10.5697   30.2091 N   0  0  0  0  0  0  0  0  0  0  0  0
   -0.3363   -6.1172   27.5628 C   0  0  0  0  0  0  0  0  0  0  0  0
    3.0331   -7.4400   27.6362 C   0  0  0  0  0  0  0  0  0  0  0  0
    5.4553   -8.5933   27.9644 C   0  0  0  0  0  0  0  0  0  0  0  0
   -2.3870  -12.8440   19.2512 C   0  0  0  0  0  0  0  0  0  0  0  0
    0.5331   -7.6964   16.2751 C   0  0  0  0  0  0  0  0  0  0  0  0
   -0.6740  -10.8737   18.0482 C   0  0  0  0  0  0  0  0  0  0  0  0
    5.6751  -10.5870   29.7637 O   0  0  0  0  0  0  0  0  0  0  0  0
    1.7612   -5.6483   26.7172 C   0  0  0  0  0  0  0  0  0  0  0  0
    0.2221   -9.8326   17.4055 C   0  0  0  0  0  0  0  0  0  0  0  0
    4.3850   -9.0730   28.6745 C   0  0  0  0  0  0  0  0  0  0  0  0
  1  7  4  0
  1 22  4  0
  2 17  4  0
  2 20  4  0
  2 28  4  0
  3  6  1  0
  3 19  1  0
  4 19  1  0
  4 26  1  0
  5 17  4  0
  5 18  4  0
  6 20  1  0
  6 26  1  0
  7 24  4  0
  8 15  4  0
  8 24  4  0
  9 14  4  0
  9 21  4  0
 10 12  4  0
 10 27  4  0
 11 12  4  0
 11 23  4  0
 13 23  4  0
 13 27  4  0
 14 20  4  0
 15 22  4  0
 16 18  4  0
 16 25  2  0
 16 28  4  0
 21 28  4  0
 24 27  1  0
M  END
$$$$

 Created by Python create_sdf_string function

 28 31  0  0  0  0  0  0  0  0999 V2000
   -1.0054  -13.0622   19.1198 C   0  0  0  0  0  0  0  0  0  0  0  0
    3.1478   -8.5360   28.5161 C   0  0  0  0  0  0  0  0  0  0  0  0
    0.5798   -7.1906   27.9330 C   0  0  0  0  0  0  0  0  0  0  0  0
    0.3978   -5.1561   26.6955 C   0  0  0  0  0  0  0  0  0  0  0  0
    2.3063  -10.0533   30.0125 C   0  0  0  0  0  0  0  0  0  0  0  0
    1.8591   -6.8254   27.4685 N   0  0  0  0  0  0  0  0  0  0  0  0
   -0.2167  -12.1055   18.5568 C   0  0  0  0  0  0  0  0  0  0  0  0
   -2.0661  -10.6994   18.1916 C   0  0  0  0  0  0  0  0  0  0  0  0
    5.2703   -7.5691   27.1123 C   0  0  0  0  0  0  0  0  0  0  0  0
    1.6204   -9.9887   17.2935 C   0  0  0  0  0  0  0  0  0  0  0  0
    1.8931   -7.9265   16.2047 C   0  0  0  0  0  0  0  0  0  0  0  0
    2.4396   -9.0801   16.7132 C   0  0  0  0  0  0  0  0  0  0  0  0
   -0.2575   -8.6234   16.8582 C   0  0  0  0  0  0  0  0  0  0  0  0
    4.0614   -7.0367   27.0106 N   0  0  0  0  0  0  0  0  0  0  0  0
   -2.9133  -11.6279   18.7578 C   0  0  0  0  0  0  0  0  0  0  0  0
    4.5688  -10.1291   29.5758 C   0  0  0  0  0  0  0  0  0  0  0  0
    2.1008   -9.0410   29.1852 N   0  0  0  0  0  0  0  0  0  0  0  0
    3.4829  -10.5697   30.2091 N   0  0  0  0  0  0  0  0  0  0  0  0
   -0.3363   -6.1172   27.5628 C   0  0  0  0  0  0  0  0  0  0  0  0
    3.0331   -7.4400   27.6362 C   0  0  0  0  0  0  0  0  0  0  0  0
    5.4553   -8.5933   27.9644 C   0  0  0  0  0  0  0  0  0  0  0  0
   -2.3870  -12.8440   19.2512 C   0  0  0  0  0  0  0  0  0  0  0  0
    0.5331   -7.6964   16.2751 C   0  0  0  0  0  0  0  0  0  0  0  0
   -0.6740  -10.8737   18.0482 C   0  0  0  0  0  0  0  0  0  0  0  0
    5.6751  -10.5870   29.7637 O   0  0  0  0  0  0  0  0  0  0  0  0
    1.7612   -5.6483   26.7172 C   0  0  0  0  0  0  0  0  0  0  0  0
    0.2221   -9.8326   17.4055 C   0  0  0  0  0  0  0  0  0  0  0  0
    4.3850   -9.0730   28.6745 C   0  0  0  0  0  0  0  0  0  0  0  0
  1  7  4  0
  1 22  4  0
  2 17  4  0
  2 20  4  0
  2 28  4  0
  3  6  1  0
  3 19  1  0
  4 19  1  0
  4 26  1  0
  5 17  4  0
  5 18  4  0
  6 20  1  0
  6 26  1  0
  7 24  4  0
  8 15  4  0
  8 24  4  0
  9 14  4  0
  9 21  4  0
 10 12  4  0
 10 27  4  0
 11 12  4  0
 11 23  4  0
 13 23  4  0
 13 27  4  0
 14 20  4  0
 15 22  4  0
 16 18  4  0
 16 25  2  0
 16 28  4  0
 21 28  4  0
 24 27  1  0
M  END
$$$$

 Created by Python create_sdf_string function

 28 31  0  0  0  0  0  0  0  0999 V2000
   -1.0054  -13.0622   19.1198 C   0  0  0  0  0  0  0  0  0  0  0  0
    3.1478   -8.5360   28.5161 C   0  0  0  0  0  0  0  0  0  0  0  0
    0.5798   -7.1906   27.9330 C   0  0  0  0  0  0  0  0  0  0  0  0
    0.3978   -5.1561   26.6955 C   0  0  0  0  0  0  0  0  0  0  0  0
    2.3063  -10.0533   30.0125 C   0  0  0  0  0  0  0  0  0  0  0  0
    1.8591   -6.8254   27.4685 N   0  0  0  0  0  0  0  0  0  0  0  0
   -0.2167  -12.1055   18.5568 C   0  0  0  0  0  0  0  0  0  0  0  0
   -2.0661  -10.6994   18.1916 C   0  0  0  0  0  0  0  0  0  0  0  0
    5.2703   -7.5691   27.1123 C   0  0  0  0  0  0  0  0  0  0  0  0
    1.6204   -9.9887   17.2935 C   0  0  0  0  0  0  0  0  0  0  0  0
    1.8931   -7.9265   16.2047 C   0  0  0  0  0  0  0  0  0  0  0  0
    2.4396   -9.0801   16.7132 C   0  0  0  0  0  0  0  0  0  0  0  0
   -0.2575   -8.6234   16.8582 C   0  0  0  0  0  0  0  0  0  0  0  0
    4.0614   -7.0367   27.0106 N   0  0  0  0  0  0  0  0  0  0  0  0
   -2.9133  -11.6279   18.7578 C   0  0  0  0  0  0  0  0  0  0  0  0
    4.5688  -10.1291   29.5758 C   0  0  0  0  0  0  0  0  0  0  0  0
    2.1008   -9.0410   29.1852 N   0  0  0  0  0  0  0  0  0  0  0  0
    3.4829  -10.5697   30.2091 N   0  0  0  0  0  0  0  0  0  0  0  0
   -0.3363   -6.1172   27.5628 C   0  0  0  0  0  0  0  0  0  0  0  0
    3.0331   -7.4400   27.6362 C   0  0  0  0  0  0  0  0  0  0  0  0
    5.4553   -8.5933   27.9644 C   0  0  0  0  0  0  0  0  0  0  0  0
   -2.3870  -12.8440   19.2512 C   0  0  0  0  0  0  0  0  0  0  0  0
    0.5331   -7.6964   16.2751 C   0  0  0  0  0  0  0  0  0  0  0  0
   -0.6740  -10.8737   18.0482 C   0  0  0  0  0  0  0  0  0  0  0  0
    5.6751  -10.5870   29.7637 O   0  0  0  0  0  0  0  0  0  0  0  0
    1.7612   -5.6483   26.7172 C   0  0  0  0  0  0  0  0  0  0  0  0
    0.2221   -9.8326   17.4055 C   0  0  0  0  0  0  0  0  0  0  0  0
    4.3850   -9.0730   28.6745 C   0  0  0  0  0  0  0  0  0  0  0  0
  1  7  4  0
  1 22  4  0
  2 17  4  0
  2 20  4  0
  2 28  4  0
  3  6  1  0
  3 19  1  0
  4 19  1  0
  4 26  1  0
  5 17  4  0
  5 18  4  0
  6 20  1  0
  6 26  1  0
  7 24  4  0
  8 15  4  0
  8 24  4  0
  9 14  4  0
  9 21  4  0
 10 12  4  0
 10 27  4  0
 11 12  4  0
 11 23  4  0
 13 23  4  0
 13 27  4  0
 14 20  4  0
 15 22  4  0
 16 18  4  0
 16 25  2  0
 16 28  4  0
 21 28  4  0
 24 27  1  0
M  END
$$$$

 Created by Python create_sdf_string function

 28 31  0  0  0  0  0  0  0  0999 V2000
   -1.0054  -13.0622   19.1198 C   0  0  0  0  0  0  0  0  0  0  0  0
    3.1478   -8.5360   28.5161 C   0  0  0  0  0  0  0  0  0  0  0  0
    0.5798   -7.1906   27.9330 C   0  0  0  0  0  0  0  0  0  0  0  0
    0.3978   -5.1561   26.6955 C   0  0  0  0  0  0  0  0  0  0  0  0
    2.3063  -10.0533   30.0125 C   0  0  0  0  0  0  0  0  0  0  0  0
    1.8591   -6.8254   27.4685 N   0  0  0  0  0  0  0  0  0  0  0  0
   -0.2167  -12.1055   18.5568 C   0  0  0  0  0  0  0  0  0  0  0  0
   -2.0661  -10.6994   18.1916 C   0  0  0  0  0  0  0  0  0  0  0  0
    5.2703   -7.5691   27.1123 C   0  0  0  0  0  0  0  0  0  0  0  0
    1.6204   -9.9887   17.2935 C   0  0  0  0  0  0  0  0  0  0  0  0
    1.8931   -7.9265   16.2047 C   0  0  0  0  0  0  0  0  0  0  0  0
    2.4396   -9.0801   16.7132 C   0  0  0  0  0  0  0  0  0  0  0  0
   -0.2575   -8.6234   16.8582 C   0  0  0  0  0  0  0  0  0  0  0  0
    4.0614   -7.0367   27.0106 N   0  0  0  0  0  0  0  0  0  0  0  0
   -2.9133  -11.6279   18.7578 C   0  0  0  0  0  0  0  0  0  0  0  0
    4.5688  -10.1291   29.5758 C   0  0  0  0  0  0  0  0  0  0  0  0
    2.1008   -9.0410   29.1852 N   0  0  0  0  0  0  0  0  0  0  0  0
    3.4829  -10.5697   30.2091 N   0  0  0  0  0  0  0  0  0  0  0  0
   -0.3363   -6.1172   27.5628 C   0  0  0  0  0  0  0  0  0  0  0  0
    3.0331   -7.4400   27.6362 C   0  0  0  0  0  0  0  0  0  0  0  0
    5.4553   -8.5933   27.9644 C   0  0  0  0  0  0  0  0  0  0  0  0
   -2.3870  -12.8440   19.2512 C   0  0  0  0  0  0  0  0  0  0  0  0
    0.5331   -7.6964   16.2751 C   0  0  0  0  0  0  0  0  0  0  0  0
   -0.6740  -10.8737   18.0482 C   0  0  0  0  0  0  0  0  0  0  0  0
    5.6751  -10.5870   29.7637 O   0  0  0  0  0  0  0  0  0  0  0  0
    1.7612   -5.6483   26.7172 C   0  0  0  0  0  0  0  0  0  0  0  0
    0.2221   -9.8326   17.4055 C   0  0  0  0  0  0  0  0  0  0  0  0
    4.3850   -9.0730   28.6745 C   0  0  0  0  0  0  0  0  0  0  0  0
  1  7  4  0
  1 22  4  0
  2 17  4  0
  2 20  4  0
  2 28  4  0
  3  6  1  0
  3 19  1  0
  4 19  1  0
  4 26  1  0
  5 17  4  0
  5 18  4  0
  6 20  1  0
  6 26  1  0
  7 24  4  0
  8 15  4  0
  8 24  4  0
  9 14  4  0
  9 21  4  0
 10 12  4  0
 10 27  4  0
 11 12  4  0
 11 23  4  0
 13 23  4  0
 13 27  4  0
 14 20  4  0
 15 22  4  0
 16 18  4  0
 16 25  2  0
 16 28  4  0
 21 28  4  0
 24 27  1  0
M  END
$$$$

 Created by Python create_sdf_string function

 28 31  0  0  0  0  0  0  0  0999 V2000
   -1.0054  -13.0622   19.1198 C   0  0  0  0  0  0  0  0  0  0  0  0
    3.1478   -8.5360   28.5161 C   0  0  0  0  0  0  0  0  0  0  0  0
    0.5798   -7.1906   27.9330 C   0  0  0  0  0  0  0  0  0  0  0  0
    0.3978   -5.1561   26.6955 C   0  0  0  0  0  0  0  0  0  0  0  0
    2.3063  -10.0533   30.0125 C   0  0  0  0  0  0  0  0  0  0  0  0
    1.8591   -6.8254   27.4685 N   0  0  0  0  0  0  0  0  0  0  0  0
   -0.2167  -12.1055   18.5568 C   0  0  0  0  0  0  0  0  0  0  0  0
   -2.0661  -10.6994   18.1916 C   0  0  0  0  0  0  0  0  0  0  0  0
    5.2703   -7.5691   27.1123 C   0  0  0  0  0  0  0  0  0  0  0  0
    1.6204   -9.9887   17.2935 C   0  0  0  0  0  0  0  0  0  0  0  0
    1.8931   -7.9265   16.2047 C   0  0  0  0  0  0  0  0  0  0  0  0
    2.4396   -9.0801   16.7132 C   0  0  0  0  0  0  0  0  0  0  0  0
   -0.2575   -8.6234   16.8582 C   0  0  0  0  0  0  0  0  0  0  0  0
    4.0614   -7.0367   27.0106 N   0  0  0  0  0  0  0  0  0  0  0  0
   -2.9133  -11.6279   18.7578 C   0  0  0  0  0  0  0  0  0  0  0  0
    4.5688  -10.1291   29.5758 C   0  0  0  0  0  0  0  0  0  0  0  0
    2.1008   -9.0410   29.1852 N   0  0  0  0  0  0  0  0  0  0  0  0
    3.4829  -10.5697   30.2091 N   0  0  0  0  0  0  0  0  0  0  0  0
   -0.3363   -6.1172   27.5628 C   0  0  0  0  0  0  0  0  0  0  0  0
    3.0331   -7.4400   27.6362 C   0  0  0  0  0  0  0  0  0  0  0  0
    5.4553   -8.5933   27.9644 C   0  0  0  0  0  0  0  0  0  0  0  0
   -2.3870  -12.8440   19.2512 C   0  0  0  0  0  0  0  0  0  0  0  0
    0.5331   -7.6964   16.2751 C   0  0  0  0  0  0  0  0  0  0  0  0
   -0.6740  -10.8737   18.0482 C   0  0  0  0  0  0  0  0  0  0  0  0
    5.6751  -10.5870   29.7637 O   0  0  0  0  0  0  0  0  0  0  0  0
    1.7612   -5.6483   26.7172 C   0  0  0  0  0  0  0  0  0  0  0  0
    0.2221   -9.8326   17.4055 C   0  0  0  0  0  0  0  0  0  0  0  0
    4.3850   -9.0730   28.6745 C   0  0  0  0  0  0  0  0  0  0  0  0
  1  7  4  0
  1 22  4  0
  2 17  4  0
  2 20  4  0
  2 28  4  0
  3  6  1  0
  3 19  1  0
  4 19  1  0
  4 26  1  0
  5 17  4  0
  5 18  4  0
  6 20  1  0
  6 26  1  0
  7 24  4  0
  8 15  4  0
  8 24  4  0
  9 14  4  0
  9 21  4  0
 10 12  4  0
 10 27  4  0
 11 12  4  0
 11 23  4  0
 13 23  4  0
 13 27  4  0
 14 20  4  0
 15 22  4  0
 16 18  4  0
 16 25  2  0
 16 28  4  0
 21 28  4  0
 24 27  1  0
M  END
$$$$

 Created by Python create_sdf_string function

 28 31  0  0  0  0  0  0  0  0999 V2000
   -1.0054  -13.0622   19.1198 C   0  0  0  0  0  0  0  0  0  0  0  0
    3.1478   -8.5360   28.5161 C   0  0  0  0  0  0  0  0  0  0  0  0
    0.5798   -7.1906   27.9330 C   0  0  0  0  0  0  0  0  0  0  0  0
    0.3978   -5.1561   26.6955 C   0  0  0  0  0  0  0  0  0  0  0  0
    2.3063  -10.0533   30.0125 C   0  0  0  0  0  0  0  0  0  0  0  0
    1.8591   -6.8254   27.4685 N   0  0  0  0  0  0  0  0  0  0  0  0
   -0.2167  -12.1055   18.5568 C   0  0  0  0  0  0  0  0  0  0  0  0
   -2.0661  -10.6994   18.1916 C   0  0  0  0  0  0  0  0  0  0  0  0
    5.2703   -7.5691   27.1123 C   0  0  0  0  0  0  0  0  0  0  0  0
    1.6204   -9.9887   17.2935 C   0  0  0  0  0  0  0  0  0  0  0  0
    1.8931   -7.9265   16.2047 C   0  0  0  0  0  0  0  0  0  0  0  0
    2.4396   -9.0801   16.7132 C   0  0  0  0  0  0  0  0  0  0  0  0
   -0.2575   -8.6234   16.8582 C   0  0  0  0  0  0  0  0  0  0  0  0
    4.0614   -7.0367   27.0106 N   0  0  0  0  0  0  0  0  0  0  0  0
   -2.9133  -11.6279   18.7578 C   0  0  0  0  0  0  0  0  0  0  0  0
    4.5688  -10.1291   29.5758 C   0  0  0  0  0  0  0  0  0  0  0  0
    2.1008   -9.0410   29.1852 N   0  0  0  0  0  0  0  0  0  0  0  0
    3.4829  -10.5697   30.2091 N   0  0  0  0  0  0  0  0  0  0  0  0
   -0.3363   -6.1172   27.5628 C   0  0  0  0  0  0  0  0  0  0  0  0
    3.0331   -7.4400   27.6362 C   0  0  0  0  0  0  0  0  0  0  0  0
    5.4553   -8.5933   27.9644 C   0  0  0  0  0  0  0  0  0  0  0  0
   -2.3870  -12.8440   19.2512 C   0  0  0  0  0  0  0  0  0  0  0  0
    0.5331   -7.6964   16.2751 C   0  0  0  0  0  0  0  0  0  0  0  0
   -0.6740  -10.8737   18.0482 C   0  0  0  0  0  0  0  0  0  0  0  0
    5.6751  -10.5870   29.7637 O   0  0  0  0  0  0  0  0  0  0  0  0
    1.7612   -5.6483   26.7172 C   0  0  0  0  0  0  0  0  0  0  0  0
    0.2221   -9.8326   17.4055 C   0  0  0  0  0  0  0  0  0  0  0  0
    4.3850   -9.0730   28.6745 C   0  0  0  0  0  0  0  0  0  0  0  0
  1  7  4  0
  1 22  4  0
  2 17  4  0
  2 20  4  0
  2 28  4  0
  3  6  1  0
  3 19  1  0
  4 19  1  0
  4 26  1  0
  5 17  4  0
  5 18  4  0
  6 20  1  0
  6 26  1  0
  7 24  4  0
  8 15  4  0
  8 24  4  0
  9 14  4  0
  9 21  4  0
 10 12  4  0
 10 27  4  0
 11 12  4  0
 11 23  4  0
 13 23  4  0
 13 27  4  0
 14 20  4  0
 15 22  4  0
 16 18  4  0
 16 25  2  0
 16 28  4  0
 21 28  4  0
 24 27  1  0
M  END
$$$$

 Created by Python create_sdf_string function

 28 31  0  0  0  0  0  0  0  0999 V2000
   -1.0054  -13.0622   19.1198 C   0  0  0  0  0  0  0  0  0  0  0  0
    3.1478   -8.5360   28.5161 C   0  0  0  0  0  0  0  0  0  0  0  0
    0.5798   -7.1906   27.9330 C   0  0  0  0  0  0  0  0  0  0  0  0
    0.3978   -5.1561   26.6955 C   0  0  0  0  0  0  0  0  0  0  0  0
    2.3063  -10.0533   30.0125 C   0  0  0  0  0  0  0  0  0  0  0  0
    1.8591   -6.8254   27.4685 N   0  0  0  0  0  0  0  0  0  0  0  0
   -0.2167  -12.1055   18.5568 C   0  0  0  0  0  0  0  0  0  0  0  0
   -2.0661  -10.6994   18.1916 C   0  0  0  0  0  0  0  0  0  0  0  0
    5.2703   -7.5691   27.1123 C   0  0  0  0  0  0  0  0  0  0  0  0
    1.6204   -9.9887   17.2935 C   0  0  0  0  0  0  0  0  0  0  0  0
    1.8931   -7.9265   16.2047 C   0  0  0  0  0  0  0  0  0  0  0  0
    2.4396   -9.0801   16.7132 C   0  0  0  0  0  0  0  0  0  0  0  0
   -0.2575   -8.6234   16.8582 C   0  0  0  0  0  0  0  0  0  0  0  0
    4.0614   -7.0367   27.0106 N   0  0  0  0  0  0  0  0  0  0  0  0
   -2.9133  -11.6279   18.7578 C   0  0  0  0  0  0  0  0  0  0  0  0
    4.5688  -10.1291   29.5758 C   0  0  0  0  0  0  0  0  0  0  0  0
    2.1008   -9.0410   29.1852 N   0  0  0  0  0  0  0  0  0  0  0  0
    3.4829  -10.5697   30.2091 N   0  0  0  0  0  0  0  0  0  0  0  0
   -0.3363   -6.1172   27.5628 C   0  0  0  0  0  0  0  0  0  0  0  0
    3.0331   -7.4400   27.6362 C   0  0  0  0  0  0  0  0  0  0  0  0
    5.4553   -8.5933   27.9644 C   0  0  0  0  0  0  0  0  0  0  0  0
   -2.3870  -12.8440   19.2512 C   0  0  0  0  0  0  0  0  0  0  0  0
    0.5331   -7.6964   16.2751 C   0  0  0  0  0  0  0  0  0  0  0  0
   -0.6740  -10.8737   18.0482 C   0  0  0  0  0  0  0  0  0  0  0  0
    5.6751  -10.5870   29.7637 O   0  0  0  0  0  0  0  0  0  0  0  0
    1.7612   -5.6483   26.7172 C   0  0  0  0  0  0  0  0  0  0  0  0
    0.2221   -9.8326   17.4055 C   0  0  0  0  0  0  0  0  0  0  0  0
    4.3850   -9.0730   28.6745 C   0  0  0  0  0  0  0  0  0  0  0  0
  1  7  4  0
  1 22  4  0
  2 17  4  0
  2 20  4  0
  2 28  4  0
  3  6  1  0
  3 19  1  0
  4 19  1  0
  4 26  1  0
  5 17  4  0
  5 18  4  0
  6 20  1  0
  6 26  1  0
  7 24  4  0
  8 15  4  0
  8 24  4  0
  9 14  4  0
  9 21  4  0
 10 12  4  0
 10 27  4  0
 11 12  4  0
 11 23  4  0
 13 23  4  0
 13 27  4  0
 14 20  4  0
 15 22  4  0
 16 18  4  0
 16 25  2  0
 16 28  4  0
 21 28  4  0
 24 27  1  0
M  END
$$$$

 Created by Python create_sdf_string function

 28 31  0  0  0  0  0  0  0  0999 V2000
   -1.0054  -13.0622   19.1198 C   0  0  0  0  0  0  0  0  0  0  0  0
    3.1478   -8.5360   28.5161 C   0  0  0  0  0  0  0  0  0  0  0  0
    0.5798   -7.1906   27.9330 C   0  0  0  0  0  0  0  0  0  0  0  0
    0.3978   -5.1561   26.6955 C   0  0  0  0  0  0  0  0  0  0  0  0
    2.3063  -10.0533   30.0125 C   0  0  0  0  0  0  0  0  0  0  0  0
    1.8591   -6.8254   27.4685 N   0  0  0  0  0  0  0  0  0  0  0  0
   -0.2167  -12.1055   18.5568 C   0  0  0  0  0  0  0  0  0  0  0  0
   -2.0661  -10.6994   18.1916 C   0  0  0  0  0  0  0  0  0  0  0  0
    5.2703   -7.5691   27.1123 C   0  0  0  0  0  0  0  0  0  0  0  0
    1.6204   -9.9887   17.2935 C   0  0  0  0  0  0  0  0  0  0  0  0
    1.8931   -7.9265   16.2047 C   0  0  0  0  0  0  0  0  0  0  0  0
    2.4396   -9.0801   16.7132 C   0  0  0  0  0  0  0  0  0  0  0  0
   -0.2575   -8.6234   16.8582 C   0  0  0  0  0  0  0  0  0  0  0  0
    4.0614   -7.0367   27.0106 N   0  0  0  0  0  0  0  0  0  0  0  0
   -2.9133  -11.6279   18.7578 C   0  0  0  0  0  0  0  0  0  0  0  0
    4.5688  -10.1291   29.5758 C   0  0  0  0  0  0  0  0  0  0  0  0
    2.1008   -9.0410   29.1852 N   0  0  0  0  0  0  0  0  0  0  0  0
    3.4829  -10.5697   30.2091 N   0  0  0  0  0  0  0  0  0  0  0  0
   -0.3363   -6.1172   27.5628 C   0  0  0  0  0  0  0  0  0  0  0  0
    3.0331   -7.4400   27.6362 C   0  0  0  0  0  0  0  0  0  0  0  0
    5.4553   -8.5933   27.9644 C   0  0  0  0  0  0  0  0  0  0  0  0
   -2.3870  -12.8440   19.2512 C   0  0  0  0  0  0  0  0  0  0  0  0
    0.5331   -7.6964   16.2751 C   0  0  0  0  0  0  0  0  0  0  0  0
   -0.6740  -10.8737   18.0482 C   0  0  0  0  0  0  0  0  0  0  0  0
    5.6751  -10.5870   29.7637 O   0  0  0  0  0  0  0  0  0  0  0  0
    1.7612   -5.6483   26.7172 C   0  0  0  0  0  0  0  0  0  0  0  0
    0.2221   -9.8326   17.4055 C   0  0  0  0  0  0  0  0  0  0  0  0
    4.3850   -9.0730   28.6745 C   0  0  0  0  0  0  0  0  0  0  0  0
  1  7  4  0
  1 22  4  0
  2 17  4  0
  2 20  4  0
  2 28  4  0
  3  6  1  0
  3 19  1  0
  4 19  1  0
  4 26  1  0
  5 17  4  0
  5 18  4  0
  6 20  1  0
  6 26  1  0
  7 24  4  0
  8 15  4  0
  8 24  4  0
  9 14  4  0
  9 21  4  0
 10 12  4  0
 10 27  4  0
 11 12  4  0
 11 23  4  0
 13 23  4  0
 13 27  4  0
 14 20  4  0
 15 22  4  0
 16 18  4  0
 16 25  2  0
 16 28  4  0
 21 28  4  0
 24 27  1  0
M  END
$$$$

 Created by Python create_sdf_string function

 28 31  0  0  0  0  0  0  0  0999 V2000
   -1.0054  -13.0622   19.1198 C   0  0  0  0  0  0  0  0  0  0  0  0
    3.1478   -8.5360   28.5161 C   0  0  0  0  0  0  0  0  0  0  0  0
    0.5798   -7.1906   27.9330 C   0  0  0  0  0  0  0  0  0  0  0  0
    0.3978   -5.1561   26.6955 C   0  0  0  0  0  0  0  0  0  0  0  0
    2.3063  -10.0533   30.0125 C   0  0  0  0  0  0  0  0  0  0  0  0
    1.8591   -6.8254   27.4685 N   0  0  0  0  0  0  0  0  0  0  0  0
   -0.2167  -12.1055   18.5568 C   0  0  0  0  0  0  0  0  0  0  0  0
   -2.0661  -10.6994   18.1916 C   0  0  0  0  0  0  0  0  0  0  0  0
    5.2703   -7.5691   27.1123 C   0  0  0  0  0  0  0  0  0  0  0  0
    1.6204   -9.9887   17.2935 C   0  0  0  0  0  0  0  0  0  0  0  0
    1.8931   -7.9265   16.2047 C   0  0  0  0  0  0  0  0  0  0  0  0
    2.4396   -9.0801   16.7132 C   0  0  0  0  0  0  0  0  0  0  0  0
   -0.2575   -8.6234   16.8582 C   0  0  0  0  0  0  0  0  0  0  0  0
    4.0614   -7.0367   27.0106 N   0  0  0  0  0  0  0  0  0  0  0  0
   -2.9133  -11.6279   18.7578 C   0  0  0  0  0  0  0  0  0  0  0  0
    4.5688  -10.1291   29.5758 C   0  0  0  0  0  0  0  0  0  0  0  0
    2.1008   -9.0410   29.1852 N   0  0  0  0  0  0  0  0  0  0  0  0
    3.4829  -10.5697   30.2091 N   0  0  0  0  0  0  0  0  0  0  0  0
   -0.3363   -6.1172   27.5628 C   0  0  0  0  0  0  0  0  0  0  0  0
    3.0331   -7.4400   27.6362 C   0  0  0  0  0  0  0  0  0  0  0  0
    5.4553   -8.5933   27.9644 C   0  0  0  0  0  0  0  0  0  0  0  0
   -2.3870  -12.8440   19.2512 C   0  0  0  0  0  0  0  0  0  0  0  0
    0.5331   -7.6964   16.2751 C   0  0  0  0  0  0  0  0  0  0  0  0
   -0.6740  -10.8737   18.0482 C   0  0  0  0  0  0  0  0  0  0  0  0
    5.6751  -10.5870   29.7637 O   0  0  0  0  0  0  0  0  0  0  0  0
    1.7612   -5.6483   26.7172 C   0  0  0  0  0  0  0  0  0  0  0  0
    0.2221   -9.8326   17.4055 C   0  0  0  0  0  0  0  0  0  0  0  0
    4.3850   -9.0730   28.6745 C   0  0  0  0  0  0  0  0  0  0  0  0
  1  7  4  0
  1 22  4  0
  2 17  4  0
  2 20  4  0
  2 28  4  0
  3  6  1  0
  3 19  1  0
  4 19  1  0
  4 26  1  0
  5 17  4  0
  5 18  4  0
  6 20  1  0
  6 26  1  0
  7 24  4  0
  8 15  4  0
  8 24  4  0
  9 14  4  0
  9 21  4  0
 10 12  4  0
 10 27  4  0
 11 12  4  0
 11 23  4  0
 13 23  4  0
 13 27  4  0
 14 20  4  0
 15 22  4  0
 16 18  4  0
 16 25  2  0
 16 28  4  0
 21 28  4  0
 24 27  1  0
M  END
$$$$

 Created by Python create_sdf_string function

 28 31  0  0  0  0  0  0  0  0999 V2000
   -1.0054  -13.0622   19.1198 C   0  0  0  0  0  0  0  0  0  0  0  0
    3.1478   -8.5360   28.5161 C   0  0  0  0  0  0  0  0  0  0  0  0
    0.5798   -7.1906   27.9330 C   0  0  0  0  0  0  0  0  0  0  0  0
    0.3978   -5.1561   26.6955 C   0  0  0  0  0  0  0  0  0  0  0  0
    2.3063  -10.0533   30.0125 C   0  0  0  0  0  0  0  0  0  0  0  0
    1.8591   -6.8254   27.4685 N   0  0  0  0  0  0  0  0  0  0  0  0
   -0.2167  -12.1055   18.5568 C   0  0  0  0  0  0  0  0  0  0  0  0
   -2.0661  -10.6994   18.1916 C   0  0  0  0  0  0  0  0  0  0  0  0
    5.2703   -7.5691   27.1123 C   0  0  0  0  0  0  0  0  0  0  0  0
    1.6204   -9.9887   17.2935 C   0  0  0  0  0  0  0  0  0  0  0  0
    1.8931   -7.9265   16.2047 C   0  0  0  0  0  0  0  0  0  0  0  0
    2.4396   -9.0801   16.7132 C   0  0  0  0  0  0  0  0  0  0  0  0
   -0.2575   -8.6234   16.8582 C   0  0  0  0  0  0  0  0  0  0  0  0
    4.0614   -7.0367   27.0106 N   0  0  0  0  0  0  0  0  0  0  0  0
   -2.9133  -11.6279   18.7578 C   0  0  0  0  0  0  0  0  0  0  0  0
    4.5688  -10.1291   29.5758 C   0  0  0  0  0  0  0  0  0  0  0  0
    2.1008   -9.0410   29.1852 N   0  0  0  0  0  0  0  0  0  0  0  0
    3.4829  -10.5697   30.2091 N   0  0  0  0  0  0  0  0  0  0  0  0
   -0.3363   -6.1172   27.5628 C   0  0  0  0  0  0  0  0  0  0  0  0
    3.0331   -7.4400   27.6362 C   0  0  0  0  0  0  0  0  0  0  0  0
    5.4553   -8.5933   27.9644 C   0  0  0  0  0  0  0  0  0  0  0  0
   -2.3870  -12.8440   19.2512 C   0  0  0  0  0  0  0  0  0  0  0  0
    0.5331   -7.6964   16.2751 C   0  0  0  0  0  0  0  0  0  0  0  0
   -0.6740  -10.8737   18.0482 C   0  0  0  0  0  0  0  0  0  0  0  0
    5.6751  -10.5870   29.7637 O   0  0  0  0  0  0  0  0  0  0  0  0
    1.7612   -5.6483   26.7172 C   0  0  0  0  0  0  0  0  0  0  0  0
    0.2221   -9.8326   17.4055 C   0  0  0  0  0  0  0  0  0  0  0  0
    4.3850   -9.0730   28.6745 C   0  0  0  0  0  0  0  0  0  0  0  0
  1  7  4  0
  1 22  4  0
  2 17  4  0
  2 20  4  0
  2 28  4  0
  3  6  1  0
  3 19  1  0
  4 19  1  0
  4 26  1  0
  5 17  4  0
  5 18  4  0
  6 20  1  0
  6 26  1  0
  7 24  4  0
  8 15  4  0
  8 24  4  0
  9 14  4  0
  9 21  4  0
 10 12  4  0
 10 27  4  0
 11 12  4  0
 11 23  4  0
 13 23  4  0
 13 27  4  0
 14 20  4  0
 15 22  4  0
 16 18  4  0
 16 25  2  0
 16 28  4  0
 21 28  4  0
 24 27  1  0
M  END
$$$$

 Created by Python create_sdf_string function

 28 31  0  0  0  0  0  0  0  0999 V2000
   -1.0054  -13.0622   19.1198 C   0  0  0  0  0  0  0  0  0  0  0  0
    3.1478   -8.5360   28.5161 C   0  0  0  0  0  0  0  0  0  0  0  0
    0.5798   -7.1906   27.9330 C   0  0  0  0  0  0  0  0  0  0  0  0
    0.3978   -5.1561   26.6955 C   0  0  0  0  0  0  0  0  0  0  0  0
    2.3063  -10.0533   30.0125 C   0  0  0  0  0  0  0  0  0  0  0  0
    1.8591   -6.8254   27.4685 N   0  0  0  0  0  0  0  0  0  0  0  0
   -0.2167  -12.1055   18.5568 C   0  0  0  0  0  0  0  0  0  0  0  0
   -2.0661  -10.6994   18.1916 C   0  0  0  0  0  0  0  0  0  0  0  0
    5.2703   -7.5691   27.1123 C   0  0  0  0  0  0  0  0  0  0  0  0
    1.6204   -9.9887   17.2935 C   0  0  0  0  0  0  0  0  0  0  0  0
    1.8931   -7.9265   16.2047 C   0  0  0  0  0  0  0  0  0  0  0  0
    2.4396   -9.0801   16.7132 C   0  0  0  0  0  0  0  0  0  0  0  0
   -0.2575   -8.6234   16.8582 C   0  0  0  0  0  0  0  0  0  0  0  0
    4.0614   -7.0367   27.0106 N   0  0  0  0  0  0  0  0  0  0  0  0
   -2.9133  -11.6279   18.7578 C   0  0  0  0  0  0  0  0  0  0  0  0
    4.5688  -10.1291   29.5758 C   0  0  0  0  0  0  0  0  0  0  0  0
    2.1008   -9.0410   29.1852 N   0  0  0  0  0  0  0  0  0  0  0  0
    3.4829  -10.5697   30.2091 N   0  0  0  0  0  0  0  0  0  0  0  0
   -0.3363   -6.1172   27.5628 C   0  0  0  0  0  0  0  0  0  0  0  0
    3.0331   -7.4400   27.6362 C   0  0  0  0  0  0  0  0  0  0  0  0
    5.4553   -8.5933   27.9644 C   0  0  0  0  0  0  0  0  0  0  0  0
   -2.3870  -12.8440   19.2512 C   0  0  0  0  0  0  0  0  0  0  0  0
    0.5331   -7.6964   16.2751 C   0  0  0  0  0  0  0  0  0  0  0  0
   -0.6740  -10.8737   18.0482 C   0  0  0  0  0  0  0  0  0  0  0  0
    5.6751  -10.5870   29.7637 O   0  0  0  0  0  0  0  0  0  0  0  0
    1.7612   -5.6483   26.7172 C   0  0  0  0  0  0  0  0  0  0  0  0
    0.2221   -9.8326   17.4055 C   0  0  0  0  0  0  0  0  0  0  0  0
    4.3850   -9.0730   28.6745 C   0  0  0  0  0  0  0  0  0  0  0  0
  1  7  4  0
  1 22  4  0
  2 17  4  0
  2 20  4  0
  2 28  4  0
  3  6  1  0
  3 19  1  0
  4 19  1  0
  4 26  1  0
  5 17  4  0
  5 18  4  0
  6 20  1  0
  6 26  1  0
  7 24  4  0
  8 15  4  0
  8 24  4  0
  9 14  4  0
  9 21  4  0
 10 12  4  0
 10 27  4  0
 11 12  4  0
 11 23  4  0
 13 23  4  0
 13 27  4  0
 14 20  4  0
 15 22  4  0
 16 18  4  0
 16 25  2  0
 16 28  4  0
 21 28  4  0
 24 27  1  0
M  END
$$$$

 Created by Python create_sdf_string function

 28 31  0  0  0  0  0  0  0  0999 V2000
   -1.0054  -13.0622   19.1198 C   0  0  0  0  0  0  0  0  0  0  0  0
    3.1478   -8.5360   28.5161 C   0  0  0  0  0  0  0  0  0  0  0  0
    0.5798   -7.1906   27.9330 C   0  0  0  0  0  0  0  0  0  0  0  0
    0.3978   -5.1561   26.6955 C   0  0  0  0  0  0  0  0  0  0  0  0
    2.3063  -10.0533   30.0125 C   0  0  0  0  0  0  0  0  0  0  0  0
    1.8591   -6.8254   27.4685 N   0  0  0  0  0  0  0  0  0  0  0  0
   -0.2167  -12.1055   18.5568 C   0  0  0  0  0  0  0  0  0  0  0  0
   -2.0661  -10.6994   18.1916 C   0  0  0  0  0  0  0  0  0  0  0  0
    5.2703   -7.5691   27.1123 C   0  0  0  0  0  0  0  0  0  0  0  0
    1.6204   -9.9887   17.2935 C   0  0  0  0  0  0  0  0  0  0  0  0
    1.8931   -7.9265   16.2047 C   0  0  0  0  0  0  0  0  0  0  0  0
    2.4396   -9.0801   16.7132 C   0  0  0  0  0  0  0  0  0  0  0  0
   -0.2575   -8.6234   16.8582 C   0  0  0  0  0  0  0  0  0  0  0  0
    4.0614   -7.0367   27.0106 N   0  0  0  0  0  0  0  0  0  0  0  0
   -2.9133  -11.6279   18.7578 C   0  0  0  0  0  0  0  0  0  0  0  0
    4.5688  -10.1291   29.5758 C   0  0  0  0  0  0  0  0  0  0  0  0
    2.1008   -9.0410   29.1852 N   0  0  0  0  0  0  0  0  0  0  0  0
    3.4829  -10.5697   30.2091 N   0  0  0  0  0  0  0  0  0  0  0  0
   -0.3363   -6.1172   27.5628 C   0  0  0  0  0  0  0  0  0  0  0  0
    3.0331   -7.4400   27.6362 C   0  0  0  0  0  0  0  0  0  0  0  0
    5.4553   -8.5933   27.9644 C   0  0  0  0  0  0  0  0  0  0  0  0
   -2.3870  -12.8440   19.2512 C   0  0  0  0  0  0  0  0  0  0  0  0
    0.5331   -7.6964   16.2751 C   0  0  0  0  0  0  0  0  0  0  0  0
   -0.6740  -10.8737   18.0482 C   0  0  0  0  0  0  0  0  0  0  0  0
    5.6751  -10.5870   29.7637 O   0  0  0  0  0  0  0  0  0  0  0  0
    1.7612   -5.6483   26.7172 C   0  0  0  0  0  0  0  0  0  0  0  0
    0.2221   -9.8326   17.4055 C   0  0  0  0  0  0  0  0  0  0  0  0
    4.3850   -9.0730   28.6745 C   0  0  0  0  0  0  0  0  0  0  0  0
  1  7  4  0
  1 22  4  0
  2 17  4  0
  2 20  4  0
  2 28  4  0
  3  6  1  0
  3 19  1  0
  4 19  1  0
  4 26  1  0
  5 17  4  0
  5 18  4  0
  6 20  1  0
  6 26  1  0
  7 24  4  0
  8 15  4  0
  8 24  4  0
  9 14  4  0
  9 21  4  0
 10 12  4  0
 10 27  4  0
 11 12  4  0
 11 23  4  0
 13 23  4  0
 13 27  4  0
 14 20  4  0
 15 22  4  0
 16 18  4  0
 16 25  2  0
 16 28  4  0
 21 28  4  0
 24 27  1  0
M  END
$$$$

 Created by Python create_sdf_string function

 28 31  0  0  0  0  0  0  0  0999 V2000
   -1.0054  -13.0622   19.1198 C   0  0  0  0  0  0  0  0  0  0  0  0
    3.1478   -8.5360   28.5161 C   0  0  0  0  0  0  0  0  0  0  0  0
    0.5798   -7.1906   27.9330 C   0  0  0  0  0  0  0  0  0  0  0  0
    0.3978   -5.1561   26.6955 C   0  0  0  0  0  0  0  0  0  0  0  0
    2.3063  -10.0533   30.0125 C   0  0  0  0  0  0  0  0  0  0  0  0
    1.8591   -6.8254   27.4685 N   0  0  0  0  0  0  0  0  0  0  0  0
   -0.2167  -12.1055   18.5568 C   0  0  0  0  0  0  0  0  0  0  0  0
   -2.0661  -10.6994   18.1916 C   0  0  0  0  0  0  0  0  0  0  0  0
    5.2703   -7.5691   27.1123 C   0  0  0  0  0  0  0  0  0  0  0  0
    1.6204   -9.9887   17.2935 C   0  0  0  0  0  0  0  0  0  0  0  0
    1.8931   -7.9265   16.2047 C   0  0  0  0  0  0  0  0  0  0  0  0
    2.4396   -9.0801   16.7132 C   0  0  0  0  0  0  0  0  0  0  0  0
   -0.2575   -8.6234   16.8582 C   0  0  0  0  0  0  0  0  0  0  0  0
    4.0614   -7.0367   27.0106 N   0  0  0  0  0  0  0  0  0  0  0  0
   -2.9133  -11.6279   18.7578 C   0  0  0  0  0  0  0  0  0  0  0  0
    4.5688  -10.1291   29.5758 C   0  0  0  0  0  0  0  0  0  0  0  0
    2.1008   -9.0410   29.1852 N   0  0  0  0  0  0  0  0  0  0  0  0
    3.4829  -10.5697   30.2091 N   0  0  0  0  0  0  0  0  0  0  0  0
   -0.3363   -6.1172   27.5628 C   0  0  0  0  0  0  0  0  0  0  0  0
    3.0331   -7.4400   27.6362 C   0  0  0  0  0  0  0  0  0  0  0  0
    5.4553   -8.5933   27.9644 C   0  0  0  0  0  0  0  0  0  0  0  0
   -2.3870  -12.8440   19.2512 C   0  0  0  0  0  0  0  0  0  0  0  0
    0.5331   -7.6964   16.2751 C   0  0  0  0  0  0  0  0  0  0  0  0
   -0.6740  -10.8737   18.0482 C   0  0  0  0  0  0  0  0  0  0  0  0
    5.6751  -10.5870   29.7637 O   0  0  0  0  0  0  0  0  0  0  0  0
    1.7612   -5.6483   26.7172 C   0  0  0  0  0  0  0  0  0  0  0  0
    0.2221   -9.8326   17.4055 C   0  0  0  0  0  0  0  0  0  0  0  0
    4.3850   -9.0730   28.6745 C   0  0  0  0  0  0  0  0  0  0  0  0
  1  7  4  0
  1 22  4  0
  2 17  4  0
  2 20  4  0
  2 28  4  0
  3  6  1  0
  3 19  1  0
  4 19  1  0
  4 26  1  0
  5 17  4  0
  5 18  4  0
  6 20  1  0
  6 26  1  0
  7 24  4  0
  8 15  4  0
  8 24  4  0
  9 14  4  0
  9 21  4  0
 10 12  4  0
 10 27  4  0
 11 12  4  0
 11 23  4  0
 13 23  4  0
 13 27  4  0
 14 20  4  0
 15 22  4  0
 16 18  4  0
 16 25  2  0
 16 28  4  0
 21 28  4  0
 24 27  1  0
M  END
$$$$

 Created by Python create_sdf_string function

 28 31  0  0  0  0  0  0  0  0999 V2000
   -1.0054  -13.0622   19.1198 C   0  0  0  0  0  0  0  0  0  0  0  0
    3.1478   -8.5360   28.5161 C   0  0  0  0  0  0  0  0  0  0  0  0
    0.5798   -7.1906   27.9330 C   0  0  0  0  0  0  0  0  0  0  0  0
    0.3978   -5.1561   26.6955 C   0  0  0  0  0  0  0  0  0  0  0  0
    2.3063  -10.0533   30.0125 C   0  0  0  0  0  0  0  0  0  0  0  0
    1.8591   -6.8254   27.4685 N   0  0  0  0  0  0  0  0  0  0  0  0
   -0.2167  -12.1055   18.5568 C   0  0  0  0  0  0  0  0  0  0  0  0
   -2.0661  -10.6994   18.1916 C   0  0  0  0  0  0  0  0  0  0  0  0
    5.2703   -7.5691   27.1123 C   0  0  0  0  0  0  0  0  0  0  0  0
    1.6204   -9.9887   17.2935 C   0  0  0  0  0  0  0  0  0  0  0  0
    1.8931   -7.9265   16.2047 C   0  0  0  0  0  0  0  0  0  0  0  0
    2.4396   -9.0801   16.7132 C   0  0  0  0  0  0  0  0  0  0  0  0
   -0.2575   -8.6234   16.8582 C   0  0  0  0  0  0  0  0  0  0  0  0
    4.0614   -7.0367   27.0106 N   0  0  0  0  0  0  0  0  0  0  0  0
   -2.9133  -11.6279   18.7578 C   0  0  0  0  0  0  0  0  0  0  0  0
    4.5688  -10.1291   29.5758 C   0  0  0  0  0  0  0  0  0  0  0  0
    2.1008   -9.0410   29.1852 N   0  0  0  0  0  0  0  0  0  0  0  0
    3.4829  -10.5697   30.2091 N   0  0  0  0  0  0  0  0  0  0  0  0
   -0.3363   -6.1172   27.5628 C   0  0  0  0  0  0  0  0  0  0  0  0
    3.0331   -7.4400   27.6362 C   0  0  0  0  0  0  0  0  0  0  0  0
    5.4553   -8.5933   27.9644 C   0  0  0  0  0  0  0  0  0  0  0  0
   -2.3870  -12.8440   19.2512 C   0  0  0  0  0  0  0  0  0  0  0  0
    0.5331   -7.6964   16.2751 C   0  0  0  0  0  0  0  0  0  0  0  0
   -0.6740  -10.8737   18.0482 C   0  0  0  0  0  0  0  0  0  0  0  0
    5.6751  -10.5870   29.7637 O   0  0  0  0  0  0  0  0  0  0  0  0
    1.7612   -5.6483   26.7172 C   0  0  0  0  0  0  0  0  0  0  0  0
    0.2221   -9.8326   17.4055 C   0  0  0  0  0  0  0  0  0  0  0  0
    4.3850   -9.0730   28.6745 C   0  0  0  0  0  0  0  0  0  0  0  0
  1  7  4  0
  1 22  4  0
  2 17  4  0
  2 20  4  0
  2 28  4  0
  3  6  1  0
  3 19  1  0
  4 19  1  0
  4 26  1  0
  5 17  4  0
  5 18  4  0
  6 20  1  0
  6 26  1  0
  7 24  4  0
  8 15  4  0
  8 24  4  0
  9 14  4  0
  9 21  4  0
 10 12  4  0
 10 27  4  0
 11 12  4  0
 11 23  4  0
 13 23  4  0
 13 27  4  0
 14 20  4  0
 15 22  4  0
 16 18  4  0
 16 25  2  0
 16 28  4  0
 21 28  4  0
 24 27  1  0
M  END
$$$$

 Created by Python create_sdf_string function

 28 31  0  0  0  0  0  0  0  0999 V2000
   -1.0054  -13.0622   19.1198 C   0  0  0  0  0  0  0  0  0  0  0  0
    3.1478   -8.5360   28.5161 C   0  0  0  0  0  0  0  0  0  0  0  0
    0.5798   -7.1906   27.9330 C   0  0  0  0  0  0  0  0  0  0  0  0
    0.3978   -5.1561   26.6955 C   0  0  0  0  0  0  0  0  0  0  0  0
    2.3063  -10.0533   30.0125 C   0  0  0  0  0  0  0  0  0  0  0  0
    1.8591   -6.8254   27.4685 N   0  0  0  0  0  0  0  0  0  0  0  0
   -0.2167  -12.1055   18.5568 C   0  0  0  0  0  0  0  0  0  0  0  0
   -2.0661  -10.6994   18.1916 C   0  0  0  0  0  0  0  0  0  0  0  0
    5.2703   -7.5691   27.1123 C   0  0  0  0  0  0  0  0  0  0  0  0
    1.6204   -9.9887   17.2935 C   0  0  0  0  0  0  0  0  0  0  0  0
    1.8931   -7.9265   16.2047 C   0  0  0  0  0  0  0  0  0  0  0  0
    2.4396   -9.0801   16.7132 C   0  0  0  0  0  0  0  0  0  0  0  0
   -0.2575   -8.6234   16.8582 C   0  0  0  0  0  0  0  0  0  0  0  0
    4.0614   -7.0367   27.0106 N   0  0  0  0  0  0  0  0  0  0  0  0
   -2.9133  -11.6279   18.7578 C   0  0  0  0  0  0  0  0  0  0  0  0
    4.5688  -10.1291   29.5758 C   0  0  0  0  0  0  0  0  0  0  0  0
    2.1008   -9.0410   29.1852 N   0  0  0  0  0  0  0  0  0  0  0  0
    3.4829  -10.5697   30.2091 N   0  0  0  0  0  0  0  0  0  0  0  0
   -0.3363   -6.1172   27.5628 C   0  0  0  0  0  0  0  0  0  0  0  0
    3.0331   -7.4400   27.6362 C   0  0  0  0  0  0  0  0  0  0  0  0
    5.4553   -8.5933   27.9644 C   0  0  0  0  0  0  0  0  0  0  0  0
   -2.3870  -12.8440   19.2512 C   0  0  0  0  0  0  0  0  0  0  0  0
    0.5331   -7.6964   16.2751 C   0  0  0  0  0  0  0  0  0  0  0  0
   -0.6740  -10.8737   18.0482 C   0  0  0  0  0  0  0  0  0  0  0  0
    5.6751  -10.5870   29.7637 O   0  0  0  0  0  0  0  0  0  0  0  0
    1.7612   -5.6483   26.7172 C   0  0  0  0  0  0  0  0  0  0  0  0
    0.2221   -9.8326   17.4055 C   0  0  0  0  0  0  0  0  0  0  0  0
    4.3850   -9.0730   28.6745 C   0  0  0  0  0  0  0  0  0  0  0  0
  1  7  4  0
  1 22  4  0
  2 17  4  0
  2 20  4  0
  2 28  4  0
  3  6  1  0
  3 19  1  0
  4 19  1  0
  4 26  1  0
  5 17  4  0
  5 18  4  0
  6 20  1  0
  6 26  1  0
  7 24  4  0
  8 15  4  0
  8 24  4  0
  9 14  4  0
  9 21  4  0
 10 12  4  0
 10 27  4  0
 11 12  4  0
 11 23  4  0
 13 23  4  0
 13 27  4  0
 14 20  4  0
 15 22  4  0
 16 18  4  0
 16 25  2  0
 16 28  4  0
 21 28  4  0
 24 27  1  0
M  END
$$$$

 Created by Python create_sdf_string function

 28 31  0  0  0  0  0  0  0  0999 V2000
   -1.0054  -13.0622   19.1198 C   0  0  0  0  0  0  0  0  0  0  0  0
    3.1478   -8.5360   28.5161 C   0  0  0  0  0  0  0  0  0  0  0  0
    0.5798   -7.1906   27.9330 C   0  0  0  0  0  0  0  0  0  0  0  0
    0.3978   -5.1561   26.6955 C   0  0  0  0  0  0  0  0  0  0  0  0
    2.3063  -10.0533   30.0125 C   0  0  0  0  0  0  0  0  0  0  0  0
    1.8591   -6.8254   27.4685 N   0  0  0  0  0  0  0  0  0  0  0  0
   -0.2167  -12.1055   18.5568 C   0  0  0  0  0  0  0  0  0  0  0  0
   -2.0661  -10.6994   18.1916 C   0  0  0  0  0  0  0  0  0  0  0  0
    5.2703   -7.5691   27.1123 C   0  0  0  0  0  0  0  0  0  0  0  0
    1.6204   -9.9887   17.2935 C   0  0  0  0  0  0  0  0  0  0  0  0
    1.8931   -7.9265   16.2047 C   0  0  0  0  0  0  0  0  0  0  0  0
    2.4396   -9.0801   16.7132 C   0  0  0  0  0  0  0  0  0  0  0  0
   -0.2575   -8.6234   16.8582 C   0  0  0  0  0  0  0  0  0  0  0  0
    4.0614   -7.0367   27.0106 N   0  0  0  0  0  0  0  0  0  0  0  0
   -2.9133  -11.6279   18.7578 C   0  0  0  0  0  0  0  0  0  0  0  0
    4.5688  -10.1291   29.5758 C   0  0  0  0  0  0  0  0  0  0  0  0
    2.1008   -9.0410   29.1852 N   0  0  0  0  0  0  0  0  0  0  0  0
    3.4829  -10.5697   30.2091 N   0  0  0  0  0  0  0  0  0  0  0  0
   -0.3363   -6.1172   27.5628 C   0  0  0  0  0  0  0  0  0  0  0  0
    3.0331   -7.4400   27.6362 C   0  0  0  0  0  0  0  0  0  0  0  0
    5.4553   -8.5933   27.9644 C   0  0  0  0  0  0  0  0  0  0  0  0
   -2.3870  -12.8440   19.2512 C   0  0  0  0  0  0  0  0  0  0  0  0
    0.5331   -7.6964   16.2751 C   0  0  0  0  0  0  0  0  0  0  0  0
   -0.6740  -10.8737   18.0482 C   0  0  0  0  0  0  0  0  0  0  0  0
    5.6751  -10.5870   29.7637 O   0  0  0  0  0  0  0  0  0  0  0  0
    1.7612   -5.6483   26.7172 C   0  0  0  0  0  0  0  0  0  0  0  0
    0.2221   -9.8326   17.4055 C   0  0  0  0  0  0  0  0  0  0  0  0
    4.3850   -9.0730   28.6745 C   0  0  0  0  0  0  0  0  0  0  0  0
  1  7  4  0
  1 22  4  0
  2 17  4  0
  2 20  4  0
  2 28  4  0
  3  6  1  0
  3 19  1  0
  4 19  1  0
  4 26  1  0
  5 17  4  0
  5 18  4  0
  6 20  1  0
  6 26  1  0
  7 24  4  0
  8 15  4  0
  8 24  4  0
  9 14  4  0
  9 21  4  0
 10 12  4  0
 10 27  4  0
 11 12  4  0
 11 23  4  0
 13 23  4  0
 13 27  4  0
 14 20  4  0
 15 22  4  0
 16 18  4  0
 16 25  2  0
 16 28  4  0
 21 28  4  0
 24 27  1  0
M  END
$$$$

 Created by Python create_sdf_string function

 28 31  0  0  0  0  0  0  0  0999 V2000
   -1.0054  -13.0622   19.1198 C   0  0  0  0  0  0  0  0  0  0  0  0
    3.1478   -8.5360   28.5161 C   0  0  0  0  0  0  0  0  0  0  0  0
    0.5798   -7.1906   27.9330 C   0  0  0  0  0  0  0  0  0  0  0  0
    0.3978   -5.1561   26.6955 C   0  0  0  0  0  0  0  0  0  0  0  0
    2.3063  -10.0533   30.0125 C   0  0  0  0  0  0  0  0  0  0  0  0
    1.8591   -6.8254   27.4685 N   0  0  0  0  0  0  0  0  0  0  0  0
   -0.2167  -12.1055   18.5568 C   0  0  0  0  0  0  0  0  0  0  0  0
   -2.0661  -10.6994   18.1916 C   0  0  0  0  0  0  0  0  0  0  0  0
    5.2703   -7.5691   27.1123 C   0  0  0  0  0  0  0  0  0  0  0  0
    1.6204   -9.9887   17.2935 C   0  0  0  0  0  0  0  0  0  0  0  0
    1.8931   -7.9265   16.2047 C   0  0  0  0  0  0  0  0  0  0  0  0
    2.4396   -9.0801   16.7132 C   0  0  0  0  0  0  0  0  0  0  0  0
   -0.2575   -8.6234   16.8582 C   0  0  0  0  0  0  0  0  0  0  0  0
    4.0614   -7.0367   27.0106 N   0  0  0  0  0  0  0  0  0  0  0  0
   -2.9133  -11.6279   18.7578 C   0  0  0  0  0  0  0  0  0  0  0  0
    4.5688  -10.1291   29.5758 C   0  0  0  0  0  0  0  0  0  0  0  0
    2.1008   -9.0410   29.1852 N   0  0  0  0  0  0  0  0  0  0  0  0
    3.4829  -10.5697   30.2091 N   0  0  0  0  0  0  0  0  0  0  0  0
   -0.3363   -6.1172   27.5628 C   0  0  0  0  0  0  0  0  0  0  0  0
    3.0331   -7.4400   27.6362 C   0  0  0  0  0  0  0  0  0  0  0  0
    5.4553   -8.5933   27.9644 C   0  0  0  0  0  0  0  0  0  0  0  0
   -2.3870  -12.8440   19.2512 C   0  0  0  0  0  0  0  0  0  0  0  0
    0.5331   -7.6964   16.2751 C   0  0  0  0  0  0  0  0  0  0  0  0
   -0.6740  -10.8737   18.0482 C   0  0  0  0  0  0  0  0  0  0  0  0
    5.6751  -10.5870   29.7637 O   0  0  0  0  0  0  0  0  0  0  0  0
    1.7612   -5.6483   26.7172 C   0  0  0  0  0  0  0  0  0  0  0  0
    0.2221   -9.8326   17.4055 C   0  0  0  0  0  0  0  0  0  0  0  0
    4.3850   -9.0730   28.6745 C   0  0  0  0  0  0  0  0  0  0  0  0
  1  7  4  0
  1 22  4  0
  2 17  4  0
  2 20  4  0
  2 28  4  0
  3  6  1  0
  3 19  1  0
  4 19  1  0
  4 26  1  0
  5 17  4  0
  5 18  4  0
  6 20  1  0
  6 26  1  0
  7 24  4  0
  8 15  4  0
  8 24  4  0
  9 14  4  0
  9 21  4  0
 10 12  4  0
 10 27  4  0
 11 12  4  0
 11 23  4  0
 13 23  4  0
 13 27  4  0
 14 20  4  0
 15 22  4  0
 16 18  4  0
 16 25  2  0
 16 28  4  0
 21 28  4  0
 24 27  1  0
M  END
$$$$

 Created by Python create_sdf_string function

 28 31  0  0  0  0  0  0  0  0999 V2000
   -1.0054  -13.0622   19.1198 C   0  0  0  0  0  0  0  0  0  0  0  0
    3.1478   -8.5360   28.5161 C   0  0  0  0  0  0  0  0  0  0  0  0
    0.5798   -7.1906   27.9330 C   0  0  0  0  0  0  0  0  0  0  0  0
    0.3978   -5.1561   26.6955 C   0  0  0  0  0  0  0  0  0  0  0  0
    2.3063  -10.0533   30.0125 C   0  0  0  0  0  0  0  0  0  0  0  0
    1.8591   -6.8254   27.4685 N   0  0  0  0  0  0  0  0  0  0  0  0
   -0.2167  -12.1055   18.5568 C   0  0  0  0  0  0  0  0  0  0  0  0
   -2.0661  -10.6994   18.1916 C   0  0  0  0  0  0  0  0  0  0  0  0
    5.2703   -7.5691   27.1123 C   0  0  0  0  0  0  0  0  0  0  0  0
    1.6204   -9.9887   17.2935 C   0  0  0  0  0  0  0  0  0  0  0  0
    1.8931   -7.9265   16.2047 C   0  0  0  0  0  0  0  0  0  0  0  0
    2.4396   -9.0801   16.7132 C   0  0  0  0  0  0  0  0  0  0  0  0
   -0.2575   -8.6234   16.8582 C   0  0  0  0  0  0  0  0  0  0  0  0
    4.0614   -7.0367   27.0106 N   0  0  0  0  0  0  0  0  0  0  0  0
   -2.9133  -11.6279   18.7578 C   0  0  0  0  0  0  0  0  0  0  0  0
    4.5688  -10.1291   29.5758 C   0  0  0  0  0  0  0  0  0  0  0  0
    2.1008   -9.0410   29.1852 N   0  0  0  0  0  0  0  0  0  0  0  0
    3.4829  -10.5697   30.2091 N   0  0  0  0  0  0  0  0  0  0  0  0
   -0.3363   -6.1172   27.5628 C   0  0  0  0  0  0  0  0  0  0  0  0
    3.0331   -7.4400   27.6362 C   0  0  0  0  0  0  0  0  0  0  0  0
    5.4553   -8.5933   27.9644 C   0  0  0  0  0  0  0  0  0  0  0  0
   -2.3870  -12.8440   19.2512 C   0  0  0  0  0  0  0  0  0  0  0  0
    0.5331   -7.6964   16.2751 C   0  0  0  0  0  0  0  0  0  0  0  0
   -0.6740  -10.8737   18.0482 C   0  0  0  0  0  0  0  0  0  0  0  0
    5.6751  -10.5870   29.7637 O   0  0  0  0  0  0  0  0  0  0  0  0
    1.7612   -5.6483   26.7172 C   0  0  0  0  0  0  0  0  0  0  0  0
    0.2221   -9.8326   17.4055 C   0  0  0  0  0  0  0  0  0  0  0  0
    4.3850   -9.0730   28.6745 C   0  0  0  0  0  0  0  0  0  0  0  0
  1  7  4  0
  1 22  4  0
  2 17  4  0
  2 20  4  0
  2 28  4  0
  3  6  1  0
  3 19  1  0
  4 19  1  0
  4 26  1  0
  5 17  4  0
  5 18  4  0
  6 20  1  0
  6 26  1  0
  7 24  4  0
  8 15  4  0
  8 24  4  0
  9 14  4  0
  9 21  4  0
 10 12  4  0
 10 27  4  0
 11 12  4  0
 11 23  4  0
 13 23  4  0
 13 27  4  0
 14 20  4  0
 15 22  4  0
 16 18  4  0
 16 25  2  0
 16 28  4  0
 21 28  4  0
 24 27  1  0
M  END
$$$$

 Created by Python create_sdf_string function

 28 31  0  0  0  0  0  0  0  0999 V2000
   -1.0054  -13.0622   19.1198 C   0  0  0  0  0  0  0  0  0  0  0  0
    3.1478   -8.5360   28.5161 C   0  0  0  0  0  0  0  0  0  0  0  0
    0.5798   -7.1906   27.9330 C   0  0  0  0  0  0  0  0  0  0  0  0
    0.3978   -5.1561   26.6955 C   0  0  0  0  0  0  0  0  0  0  0  0
    2.3063  -10.0533   30.0125 C   0  0  0  0  0  0  0  0  0  0  0  0
    1.8591   -6.8254   27.4685 N   0  0  0  0  0  0  0  0  0  0  0  0
   -0.2167  -12.1055   18.5568 C   0  0  0  0  0  0  0  0  0  0  0  0
   -2.0661  -10.6994   18.1916 C   0  0  0  0  0  0  0  0  0  0  0  0
    5.2703   -7.5691   27.1123 C   0  0  0  0  0  0  0  0  0  0  0  0
    1.6204   -9.9887   17.2935 C   0  0  0  0  0  0  0  0  0  0  0  0
    1.8931   -7.9265   16.2047 C   0  0  0  0  0  0  0  0  0  0  0  0
    2.4396   -9.0801   16.7132 C   0  0  0  0  0  0  0  0  0  0  0  0
   -0.2575   -8.6234   16.8582 C   0  0  0  0  0  0  0  0  0  0  0  0
    4.0614   -7.0367   27.0106 N   0  0  0  0  0  0  0  0  0  0  0  0
   -2.9133  -11.6279   18.7578 C   0  0  0  0  0  0  0  0  0  0  0  0
    4.5688  -10.1291   29.5758 C   0  0  0  0  0  0  0  0  0  0  0  0
    2.1008   -9.0410   29.1852 N   0  0  0  0  0  0  0  0  0  0  0  0
    3.4829  -10.5697   30.2091 N   0  0  0  0  0  0  0  0  0  0  0  0
   -0.3363   -6.1172   27.5628 C   0  0  0  0  0  0  0  0  0  0  0  0
    3.0331   -7.4400   27.6362 C   0  0  0  0  0  0  0  0  0  0  0  0
    5.4553   -8.5933   27.9644 C   0  0  0  0  0  0  0  0  0  0  0  0
   -2.3870  -12.8440   19.2512 C   0  0  0  0  0  0  0  0  0  0  0  0
    0.5331   -7.6964   16.2751 C   0  0  0  0  0  0  0  0  0  0  0  0
   -0.6740  -10.8737   18.0482 C   0  0  0  0  0  0  0  0  0  0  0  0
    5.6751  -10.5870   29.7637 O   0  0  0  0  0  0  0  0  0  0  0  0
    1.7612   -5.6483   26.7172 C   0  0  0  0  0  0  0  0  0  0  0  0
    0.2221   -9.8326   17.4055 C   0  0  0  0  0  0  0  0  0  0  0  0
    4.3850   -9.0730   28.6745 C   0  0  0  0  0  0  0  0  0  0  0  0
  1  7  4  0
  1 22  4  0
  2 17  4  0
  2 20  4  0
  2 28  4  0
  3  6  1  0
  3 19  1  0
  4 19  1  0
  4 26  1  0
  5 17  4  0
  5 18  4  0
  6 20  1  0
  6 26  1  0
  7 24  4  0
  8 15  4  0
  8 24  4  0
  9 14  4  0
  9 21  4  0
 10 12  4  0
 10 27  4  0
 11 12  4  0
 11 23  4  0
 13 23  4  0
 13 27  4  0
 14 20  4  0
 15 22  4  0
 16 18  4  0
 16 25  2  0
 16 28  4  0
 21 28  4  0
 24 27  1  0
M  END
$$$$

 Created by Python create_sdf_string function

 28 31  0  0  0  0  0  0  0  0999 V2000
   -1.0054  -13.0622   19.1198 C   0  0  0  0  0  0  0  0  0  0  0  0
    3.1478   -8.5360   28.5161 C   0  0  0  0  0  0  0  0  0  0  0  0
    0.5798   -7.1906   27.9330 C   0  0  0  0  0  0  0  0  0  0  0  0
    0.3978   -5.1561   26.6955 C   0  0  0  0  0  0  0  0  0  0  0  0
    2.3063  -10.0533   30.0125 C   0  0  0  0  0  0  0  0  0  0  0  0
    1.8591   -6.8254   27.4685 N   0  0  0  0  0  0  0  0  0  0  0  0
   -0.2167  -12.1055   18.5568 C   0  0  0  0  0  0  0  0  0  0  0  0
   -2.0661  -10.6994   18.1916 C   0  0  0  0  0  0  0  0  0  0  0  0
    5.2703   -7.5691   27.1123 C   0  0  0  0  0  0  0  0  0  0  0  0
    1.6204   -9.9887   17.2935 C   0  0  0  0  0  0  0  0  0  0  0  0
    1.8931   -7.9265   16.2047 C   0  0  0  0  0  0  0  0  0  0  0  0
    2.4396   -9.0801   16.7132 C   0  0  0  0  0  0  0  0  0  0  0  0
   -0.2575   -8.6234   16.8582 C   0  0  0  0  0  0  0  0  0  0  0  0
    4.0614   -7.0367   27.0106 N   0  0  0  0  0  0  0  0  0  0  0  0
   -2.9133  -11.6279   18.7578 C   0  0  0  0  0  0  0  0  0  0  0  0
    4.5688  -10.1291   29.5758 C   0  0  0  0  0  0  0  0  0  0  0  0
    2.1008   -9.0410   29.1852 N   0  0  0  0  0  0  0  0  0  0  0  0
    3.4829  -10.5697   30.2091 N   0  0  0  0  0  0  0  0  0  0  0  0
   -0.3363   -6.1172   27.5628 C   0  0  0  0  0  0  0  0  0  0  0  0
    3.0331   -7.4400   27.6362 C   0  0  0  0  0  0  0  0  0  0  0  0
    5.4553   -8.5933   27.9644 C   0  0  0  0  0  0  0  0  0  0  0  0
   -2.3870  -12.8440   19.2512 C   0  0  0  0  0  0  0  0  0  0  0  0
    0.5331   -7.6964   16.2751 C   0  0  0  0  0  0  0  0  0  0  0  0
   -0.6740  -10.8737   18.0482 C   0  0  0  0  0  0  0  0  0  0  0  0
    5.6751  -10.5870   29.7637 O   0  0  0  0  0  0  0  0  0  0  0  0
    1.7612   -5.6483   26.7172 C   0  0  0  0  0  0  0  0  0  0  0  0
    0.2221   -9.8326   17.4055 C   0  0  0  0  0  0  0  0  0  0  0  0
    4.3850   -9.0730   28.6745 C   0  0  0  0  0  0  0  0  0  0  0  0
  1  7  4  0
  1 22  4  0
  2 17  4  0
  2 20  4  0
  2 28  4  0
  3  6  1  0
  3 19  1  0
  4 19  1  0
  4 26  1  0
  5 17  4  0
  5 18  4  0
  6 20  1  0
  6 26  1  0
  7 24  4  0
  8 15  4  0
  8 24  4  0
  9 14  4  0
  9 21  4  0
 10 12  4  0
 10 27  4  0
 11 12  4  0
 11 23  4  0
 13 23  4  0
 13 27  4  0
 14 20  4  0
 15 22  4  0
 16 18  4  0
 16 25  2  0
 16 28  4  0
 21 28  4  0
 24 27  1  0
M  END
$$$$

 Created by Python create_sdf_string function

 28 31  0  0  0  0  0  0  0  0999 V2000
   -1.0054  -13.0622   19.1198 C   0  0  0  0  0  0  0  0  0  0  0  0
    3.1478   -8.5360   28.5161 C   0  0  0  0  0  0  0  0  0  0  0  0
    0.5798   -7.1906   27.9330 C   0  0  0  0  0  0  0  0  0  0  0  0
    0.3978   -5.1561   26.6955 C   0  0  0  0  0  0  0  0  0  0  0  0
    2.3063  -10.0533   30.0125 C   0  0  0  0  0  0  0  0  0  0  0  0
    1.8591   -6.8254   27.4685 N   0  0  0  0  0  0  0  0  0  0  0  0
   -0.2167  -12.1055   18.5568 C   0  0  0  0  0  0  0  0  0  0  0  0
   -2.0661  -10.6994   18.1916 C   0  0  0  0  0  0  0  0  0  0  0  0
    5.2703   -7.5691   27.1123 C   0  0  0  0  0  0  0  0  0  0  0  0
    1.6204   -9.9887   17.2935 C   0  0  0  0  0  0  0  0  0  0  0  0
    1.8931   -7.9265   16.2047 C   0  0  0  0  0  0  0  0  0  0  0  0
    2.4396   -9.0801   16.7132 C   0  0  0  0  0  0  0  0  0  0  0  0
   -0.2575   -8.6234   16.8582 C   0  0  0  0  0  0  0  0  0  0  0  0
    4.0614   -7.0367   27.0106 N   0  0  0  0  0  0  0  0  0  0  0  0
   -2.9133  -11.6279   18.7578 C   0  0  0  0  0  0  0  0  0  0  0  0
    4.5688  -10.1291   29.5758 C   0  0  0  0  0  0  0  0  0  0  0  0
    2.1008   -9.0410   29.1852 N   0  0  0  0  0  0  0  0  0  0  0  0
    3.4829  -10.5697   30.2091 N   0  0  0  0  0  0  0  0  0  0  0  0
   -0.3363   -6.1172   27.5628 C   0  0  0  0  0  0  0  0  0  0  0  0
    3.0331   -7.4400   27.6362 C   0  0  0  0  0  0  0  0  0  0  0  0
    5.4553   -8.5933   27.9644 C   0  0  0  0  0  0  0  0  0  0  0  0
   -2.3870  -12.8440   19.2512 C   0  0  0  0  0  0  0  0  0  0  0  0
    0.5331   -7.6964   16.2751 C   0  0  0  0  0  0  0  0  0  0  0  0
   -0.6740  -10.8737   18.0482 C   0  0  0  0  0  0  0  0  0  0  0  0
    5.6751  -10.5870   29.7637 O   0  0  0  0  0  0  0  0  0  0  0  0
    1.7612   -5.6483   26.7172 C   0  0  0  0  0  0  0  0  0  0  0  0
    0.2221   -9.8326   17.4055 C   0  0  0  0  0  0  0  0  0  0  0  0
    4.3850   -9.0730   28.6745 C   0  0  0  0  0  0  0  0  0  0  0  0
  1  7  4  0
  1 22  4  0
  2 17  4  0
  2 20  4  0
  2 28  4  0
  3  6  1  0
  3 19  1  0
  4 19  1  0
  4 26  1  0
  5 17  4  0
  5 18  4  0
  6 20  1  0
  6 26  1  0
  7 24  4  0
  8 15  4  0
  8 24  4  0
  9 14  4  0
  9 21  4  0
 10 12  4  0
 10 27  4  0
 11 12  4  0
 11 23  4  0
 13 23  4  0
 13 27  4  0
 14 20  4  0
 15 22  4  0
 16 18  4  0
 16 25  2  0
 16 28  4  0
 21 28  4  0
 24 27  1  0
M  END
$$$$

 Created by Python create_sdf_string function

 28 31  0  0  0  0  0  0  0  0999 V2000
   -1.0054  -13.0622   19.1198 C   0  0  0  0  0  0  0  0  0  0  0  0
    3.1478   -8.5360   28.5161 C   0  0  0  0  0  0  0  0  0  0  0  0
    0.5798   -7.1906   27.9330 C   0  0  0  0  0  0  0  0  0  0  0  0
    0.3978   -5.1561   26.6955 C   0  0  0  0  0  0  0  0  0  0  0  0
    2.3063  -10.0533   30.0125 C   0  0  0  0  0  0  0  0  0  0  0  0
    1.8591   -6.8254   27.4685 N   0  0  0  0  0  0  0  0  0  0  0  0
   -0.2167  -12.1055   18.5568 C   0  0  0  0  0  0  0  0  0  0  0  0
   -2.0661  -10.6994   18.1916 C   0  0  0  0  0  0  0  0  0  0  0  0
    5.2703   -7.5691   27.1123 C   0  0  0  0  0  0  0  0  0  0  0  0
    1.6204   -9.9887   17.2935 C   0  0  0  0  0  0  0  0  0  0  0  0
    1.8931   -7.9265   16.2047 C   0  0  0  0  0  0  0  0  0  0  0  0
    2.4396   -9.0801   16.7132 C   0  0  0  0  0  0  0  0  0  0  0  0
   -0.2575   -8.6234   16.8582 C   0  0  0  0  0  0  0  0  0  0  0  0
    4.0614   -7.0367   27.0106 N   0  0  0  0  0  0  0  0  0  0  0  0
   -2.9133  -11.6279   18.7578 C   0  0  0  0  0  0  0  0  0  0  0  0
    4.5688  -10.1291   29.5758 C   0  0  0  0  0  0  0  0  0  0  0  0
    2.1008   -9.0410   29.1852 N   0  0  0  0  0  0  0  0  0  0  0  0
    3.4829  -10.5697   30.2091 N   0  0  0  0  0  0  0  0  0  0  0  0
   -0.3363   -6.1172   27.5628 C   0  0  0  0  0  0  0  0  0  0  0  0
    3.0331   -7.4400   27.6362 C   0  0  0  0  0  0  0  0  0  0  0  0
    5.4553   -8.5933   27.9644 C   0  0  0  0  0  0  0  0  0  0  0  0
   -2.3870  -12.8440   19.2512 C   0  0  0  0  0  0  0  0  0  0  0  0
    0.5331   -7.6964   16.2751 C   0  0  0  0  0  0  0  0  0  0  0  0
   -0.6740  -10.8737   18.0482 C   0  0  0  0  0  0  0  0  0  0  0  0
    5.6751  -10.5870   29.7637 O   0  0  0  0  0  0  0  0  0  0  0  0
    1.7612   -5.6483   26.7172 C   0  0  0  0  0  0  0  0  0  0  0  0
    0.2221   -9.8326   17.4055 C   0  0  0  0  0  0  0  0  0  0  0  0
    4.3850   -9.0730   28.6745 C   0  0  0  0  0  0  0  0  0  0  0  0
  1  7  4  0
  1 22  4  0
  2 17  4  0
  2 20  4  0
  2 28  4  0
  3  6  1  0
  3 19  1  0
  4 19  1  0
  4 26  1  0
  5 17  4  0
  5 18  4  0
  6 20  1  0
  6 26  1  0
  7 24  4  0
  8 15  4  0
  8 24  4  0
  9 14  4  0
  9 21  4  0
 10 12  4  0
 10 27  4  0
 11 12  4  0
 11 23  4  0
 13 23  4  0
 13 27  4  0
 14 20  4  0
 15 22  4  0
 16 18  4  0
 16 25  2  0
 16 28  4  0
 21 28  4  0
 24 27  1  0
M  END
$$$$

 Created by Python create_sdf_string function

 28 31  0  0  0  0  0  0  0  0999 V2000
   -1.0054  -13.0622   19.1198 C   0  0  0  0  0  0  0  0  0  0  0  0
    3.1478   -8.5360   28.5161 C   0  0  0  0  0  0  0  0  0  0  0  0
    0.5798   -7.1906   27.9330 C   0  0  0  0  0  0  0  0  0  0  0  0
    0.3978   -5.1561   26.6955 C   0  0  0  0  0  0  0  0  0  0  0  0
    2.3063  -10.0533   30.0125 C   0  0  0  0  0  0  0  0  0  0  0  0
    1.8591   -6.8254   27.4685 N   0  0  0  0  0  0  0  0  0  0  0  0
   -0.2167  -12.1055   18.5568 C   0  0  0  0  0  0  0  0  0  0  0  0
   -2.0661  -10.6994   18.1916 C   0  0  0  0  0  0  0  0  0  0  0  0
    5.2703   -7.5691   27.1123 C   0  0  0  0  0  0  0  0  0  0  0  0
    1.6204   -9.9887   17.2935 C   0  0  0  0  0  0  0  0  0  0  0  0
    1.8931   -7.9265   16.2047 C   0  0  0  0  0  0  0  0  0  0  0  0
    2.4396   -9.0801   16.7132 C   0  0  0  0  0  0  0  0  0  0  0  0
   -0.2575   -8.6234   16.8582 C   0  0  0  0  0  0  0  0  0  0  0  0
    4.0614   -7.0367   27.0106 N   0  0  0  0  0  0  0  0  0  0  0  0
   -2.9133  -11.6279   18.7578 C   0  0  0  0  0  0  0  0  0  0  0  0
    4.5688  -10.1291   29.5758 C   0  0  0  0  0  0  0  0  0  0  0  0
    2.1008   -9.0410   29.1852 N   0  0  0  0  0  0  0  0  0  0  0  0
    3.4829  -10.5697   30.2091 N   0  0  0  0  0  0  0  0  0  0  0  0
   -0.3363   -6.1172   27.5628 C   0  0  0  0  0  0  0  0  0  0  0  0
    3.0331   -7.4400   27.6362 C   0  0  0  0  0  0  0  0  0  0  0  0
    5.4553   -8.5933   27.9644 C   0  0  0  0  0  0  0  0  0  0  0  0
   -2.3870  -12.8440   19.2512 C   0  0  0  0  0  0  0  0  0  0  0  0
    0.5331   -7.6964   16.2751 C   0  0  0  0  0  0  0  0  0  0  0  0
   -0.6740  -10.8737   18.0482 C   0  0  0  0  0  0  0  0  0  0  0  0
    5.6751  -10.5870   29.7637 O   0  0  0  0  0  0  0  0  0  0  0  0
    1.7612   -5.6483   26.7172 C   0  0  0  0  0  0  0  0  0  0  0  0
    0.2221   -9.8326   17.4055 C   0  0  0  0  0  0  0  0  0  0  0  0
    4.3850   -9.0730   28.6745 C   0  0  0  0  0  0  0  0  0  0  0  0
  1  7  4  0
  1 22  4  0
  2 17  4  0
  2 20  4  0
  2 28  4  0
  3  6  1  0
  3 19  1  0
  4 19  1  0
  4 26  1  0
  5 17  4  0
  5 18  4  0
  6 20  1  0
  6 26  1  0
  7 24  4  0
  8 15  4  0
  8 24  4  0
  9 14  4  0
  9 21  4  0
 10 12  4  0
 10 27  4  0
 11 12  4  0
 11 23  4  0
 13 23  4  0
 13 27  4  0
 14 20  4  0
 15 22  4  0
 16 18  4  0
 16 25  2  0
 16 28  4  0
 21 28  4  0
 24 27  1  0
M  END
$$$$

 Created by Python create_sdf_string function

 28 31  0  0  0  0  0  0  0  0999 V2000
   -1.0054  -13.0622   19.1198 C   0  0  0  0  0  0  0  0  0  0  0  0
    3.1478   -8.5360   28.5161 C   0  0  0  0  0  0  0  0  0  0  0  0
    0.5798   -7.1906   27.9330 C   0  0  0  0  0  0  0  0  0  0  0  0
    0.3978   -5.1561   26.6955 C   0  0  0  0  0  0  0  0  0  0  0  0
    2.3063  -10.0533   30.0125 C   0  0  0  0  0  0  0  0  0  0  0  0
    1.8591   -6.8254   27.4685 N   0  0  0  0  0  0  0  0  0  0  0  0
   -0.2167  -12.1055   18.5568 C   0  0  0  0  0  0  0  0  0  0  0  0
   -2.0661  -10.6994   18.1916 C   0  0  0  0  0  0  0  0  0  0  0  0
    5.2703   -7.5691   27.1123 C   0  0  0  0  0  0  0  0  0  0  0  0
    1.6204   -9.9887   17.2935 C   0  0  0  0  0  0  0  0  0  0  0  0
    1.8931   -7.9265   16.2047 C   0  0  0  0  0  0  0  0  0  0  0  0
    2.4396   -9.0801   16.7132 C   0  0  0  0  0  0  0  0  0  0  0  0
   -0.2575   -8.6234   16.8582 C   0  0  0  0  0  0  0  0  0  0  0  0
    4.0614   -7.0367   27.0106 N   0  0  0  0  0  0  0  0  0  0  0  0
   -2.9133  -11.6279   18.7578 C   0  0  0  0  0  0  0  0  0  0  0  0
    4.5688  -10.1291   29.5758 C   0  0  0  0  0  0  0  0  0  0  0  0
    2.1008   -9.0410   29.1852 N   0  0  0  0  0  0  0  0  0  0  0  0
    3.4829  -10.5697   30.2091 N   0  0  0  0  0  0  0  0  0  0  0  0
   -0.3363   -6.1172   27.5628 C   0  0  0  0  0  0  0  0  0  0  0  0
    3.0331   -7.4400   27.6362 C   0  0  0  0  0  0  0  0  0  0  0  0
    5.4553   -8.5933   27.9644 C   0  0  0  0  0  0  0  0  0  0  0  0
   -2.3870  -12.8440   19.2512 C   0  0  0  0  0  0  0  0  0  0  0  0
    0.5331   -7.6964   16.2751 C   0  0  0  0  0  0  0  0  0  0  0  0
   -0.6740  -10.8737   18.0482 C   0  0  0  0  0  0  0  0  0  0  0  0
    5.6751  -10.5870   29.7637 O   0  0  0  0  0  0  0  0  0  0  0  0
    1.7612   -5.6483   26.7172 C   0  0  0  0  0  0  0  0  0  0  0  0
    0.2221   -9.8326   17.4055 C   0  0  0  0  0  0  0  0  0  0  0  0
    4.3850   -9.0730   28.6745 C   0  0  0  0  0  0  0  0  0  0  0  0
  1  7  4  0
  1 22  4  0
  2 17  4  0
  2 20  4  0
  2 28  4  0
  3  6  1  0
  3 19  1  0
  4 19  1  0
  4 26  1  0
  5 17  4  0
  5 18  4  0
  6 20  1  0
  6 26  1  0
  7 24  4  0
  8 15  4  0
  8 24  4  0
  9 14  4  0
  9 21  4  0
 10 12  4  0
 10 27  4  0
 11 12  4  0
 11 23  4  0
 13 23  4  0
 13 27  4  0
 14 20  4  0
 15 22  4  0
 16 18  4  0
 16 25  2  0
 16 28  4  0
 21 28  4  0
 24 27  1  0
M  END
$$$$

 Created by Python create_sdf_string function

 28 31  0  0  0  0  0  0  0  0999 V2000
   -1.0054  -13.0622   19.1198 C   0  0  0  0  0  0  0  0  0  0  0  0
    3.1478   -8.5360   28.5161 C   0  0  0  0  0  0  0  0  0  0  0  0
    0.5798   -7.1906   27.9330 C   0  0  0  0  0  0  0  0  0  0  0  0
    0.3978   -5.1561   26.6955 C   0  0  0  0  0  0  0  0  0  0  0  0
    2.3063  -10.0533   30.0125 C   0  0  0  0  0  0  0  0  0  0  0  0
    1.8591   -6.8254   27.4685 N   0  0  0  0  0  0  0  0  0  0  0  0
   -0.2167  -12.1055   18.5568 C   0  0  0  0  0  0  0  0  0  0  0  0
   -2.0661  -10.6994   18.1916 C   0  0  0  0  0  0  0  0  0  0  0  0
    5.2703   -7.5691   27.1123 C   0  0  0  0  0  0  0  0  0  0  0  0
    1.6204   -9.9887   17.2935 C   0  0  0  0  0  0  0  0  0  0  0  0
    1.8931   -7.9265   16.2047 C   0  0  0  0  0  0  0  0  0  0  0  0
    2.4396   -9.0801   16.7132 C   0  0  0  0  0  0  0  0  0  0  0  0
   -0.2575   -8.6234   16.8582 C   0  0  0  0  0  0  0  0  0  0  0  0
    4.0614   -7.0367   27.0106 N   0  0  0  0  0  0  0  0  0  0  0  0
   -2.9133  -11.6279   18.7578 C   0  0  0  0  0  0  0  0  0  0  0  0
    4.5688  -10.1291   29.5758 C   0  0  0  0  0  0  0  0  0  0  0  0
    2.1008   -9.0410   29.1852 N   0  0  0  0  0  0  0  0  0  0  0  0
    3.4829  -10.5697   30.2091 N   0  0  0  0  0  0  0  0  0  0  0  0
   -0.3363   -6.1172   27.5628 C   0  0  0  0  0  0  0  0  0  0  0  0
    3.0331   -7.4400   27.6362 C   0  0  0  0  0  0  0  0  0  0  0  0
    5.4553   -8.5933   27.9644 C   0  0  0  0  0  0  0  0  0  0  0  0
   -2.3870  -12.8440   19.2512 C   0  0  0  0  0  0  0  0  0  0  0  0
    0.5331   -7.6964   16.2751 C   0  0  0  0  0  0  0  0  0  0  0  0
   -0.6740  -10.8737   18.0482 C   0  0  0  0  0  0  0  0  0  0  0  0
    5.6751  -10.5870   29.7637 O   0  0  0  0  0  0  0  0  0  0  0  0
    1.7612   -5.6483   26.7172 C   0  0  0  0  0  0  0  0  0  0  0  0
    0.2221   -9.8326   17.4055 C   0  0  0  0  0  0  0  0  0  0  0  0
    4.3850   -9.0730   28.6745 C   0  0  0  0  0  0  0  0  0  0  0  0
  1  7  4  0
  1 22  4  0
  2 17  4  0
  2 20  4  0
  2 28  4  0
  3  6  1  0
  3 19  1  0
  4 19  1  0
  4 26  1  0
  5 17  4  0
  5 18  4  0
  6 20  1  0
  6 26  1  0
  7 24  4  0
  8 15  4  0
  8 24  4  0
  9 14  4  0
  9 21  4  0
 10 12  4  0
 10 27  4  0
 11 12  4  0
 11 23  4  0
 13 23  4  0
 13 27  4  0
 14 20  4  0
 15 22  4  0
 16 18  4  0
 16 25  2  0
 16 28  4  0
 21 28  4  0
 24 27  1  0
M  END
$$$$

 Created by Python create_sdf_string function

 28 31  0  0  0  0  0  0  0  0999 V2000
   -1.0054  -13.0622   19.1198 C   0  0  0  0  0  0  0  0  0  0  0  0
    3.1478   -8.5360   28.5161 C   0  0  0  0  0  0  0  0  0  0  0  0
    0.5798   -7.1906   27.9330 C   0  0  0  0  0  0  0  0  0  0  0  0
    0.3978   -5.1561   26.6955 C   0  0  0  0  0  0  0  0  0  0  0  0
    2.3063  -10.0533   30.0125 C   0  0  0  0  0  0  0  0  0  0  0  0
    1.8591   -6.8254   27.4685 N   0  0  0  0  0  0  0  0  0  0  0  0
   -0.2167  -12.1055   18.5568 C   0  0  0  0  0  0  0  0  0  0  0  0
   -2.0661  -10.6994   18.1916 C   0  0  0  0  0  0  0  0  0  0  0  0
    5.2703   -7.5691   27.1123 C   0  0  0  0  0  0  0  0  0  0  0  0
    1.6204   -9.9887   17.2935 C   0  0  0  0  0  0  0  0  0  0  0  0
    1.8931   -7.9265   16.2047 C   0  0  0  0  0  0  0  0  0  0  0  0
    2.4396   -9.0801   16.7132 C   0  0  0  0  0  0  0  0  0  0  0  0
   -0.2575   -8.6234   16.8582 C   0  0  0  0  0  0  0  0  0  0  0  0
    4.0614   -7.0367   27.0106 N   0  0  0  0  0  0  0  0  0  0  0  0
   -2.9133  -11.6279   18.7578 C   0  0  0  0  0  0  0  0  0  0  0  0
    4.5688  -10.1291   29.5758 C   0  0  0  0  0  0  0  0  0  0  0  0
    2.1008   -9.0410   29.1852 N   0  0  0  0  0  0  0  0  0  0  0  0
    3.4829  -10.5697   30.2091 N   0  0  0  0  0  0  0  0  0  0  0  0
   -0.3363   -6.1172   27.5628 C   0  0  0  0  0  0  0  0  0  0  0  0
    3.0331   -7.4400   27.6362 C   0  0  0  0  0  0  0  0  0  0  0  0
    5.4553   -8.5933   27.9644 C   0  0  0  0  0  0  0  0  0  0  0  0
   -2.3870  -12.8440   19.2512 C   0  0  0  0  0  0  0  0  0  0  0  0
    0.5331   -7.6964   16.2751 C   0  0  0  0  0  0  0  0  0  0  0  0
   -0.6740  -10.8737   18.0482 C   0  0  0  0  0  0  0  0  0  0  0  0
    5.6751  -10.5870   29.7637 O   0  0  0  0  0  0  0  0  0  0  0  0
    1.7612   -5.6483   26.7172 C   0  0  0  0  0  0  0  0  0  0  0  0
    0.2221   -9.8326   17.4055 C   0  0  0  0  0  0  0  0  0  0  0  0
    4.3850   -9.0730   28.6745 C   0  0  0  0  0  0  0  0  0  0  0  0
  1  7  4  0
  1 22  4  0
  2 17  4  0
  2 20  4  0
  2 28  4  0
  3  6  1  0
  3 19  1  0
  4 19  1  0
  4 26  1  0
  5 17  4  0
  5 18  4  0
  6 20  1  0
  6 26  1  0
  7 24  4  0
  8 15  4  0
  8 24  4  0
  9 14  4  0
  9 21  4  0
 10 12  4  0
 10 27  4  0
 11 12  4  0
 11 23  4  0
 13 23  4  0
 13 27  4  0
 14 20  4  0
 15 22  4  0
 16 18  4  0
 16 25  2  0
 16 28  4  0
 21 28  4  0
 24 27  1  0
M  END
$$$$

 Created by Python create_sdf_string function

 28 31  0  0  0  0  0  0  0  0999 V2000
   -1.0054  -13.0622   19.1198 C   0  0  0  0  0  0  0  0  0  0  0  0
    3.1478   -8.5360   28.5161 C   0  0  0  0  0  0  0  0  0  0  0  0
    0.5798   -7.1906   27.9330 C   0  0  0  0  0  0  0  0  0  0  0  0
    0.3978   -5.1561   26.6955 C   0  0  0  0  0  0  0  0  0  0  0  0
    2.3063  -10.0533   30.0125 C   0  0  0  0  0  0  0  0  0  0  0  0
    1.8591   -6.8254   27.4685 N   0  0  0  0  0  0  0  0  0  0  0  0
   -0.2167  -12.1055   18.5568 C   0  0  0  0  0  0  0  0  0  0  0  0
   -2.0661  -10.6994   18.1916 C   0  0  0  0  0  0  0  0  0  0  0  0
    5.2703   -7.5691   27.1123 C   0  0  0  0  0  0  0  0  0  0  0  0
    1.6204   -9.9887   17.2935 C   0  0  0  0  0  0  0  0  0  0  0  0
    1.8931   -7.9265   16.2047 C   0  0  0  0  0  0  0  0  0  0  0  0
    2.4396   -9.0801   16.7132 C   0  0  0  0  0  0  0  0  0  0  0  0
   -0.2575   -8.6234   16.8582 C   0  0  0  0  0  0  0  0  0  0  0  0
    4.0614   -7.0367   27.0106 N   0  0  0  0  0  0  0  0  0  0  0  0
   -2.9133  -11.6279   18.7578 C   0  0  0  0  0  0  0  0  0  0  0  0
    4.5688  -10.1291   29.5758 C   0  0  0  0  0  0  0  0  0  0  0  0
    2.1008   -9.0410   29.1852 N   0  0  0  0  0  0  0  0  0  0  0  0
    3.4829  -10.5697   30.2091 N   0  0  0  0  0  0  0  0  0  0  0  0
   -0.3363   -6.1172   27.5628 C   0  0  0  0  0  0  0  0  0  0  0  0
    3.0331   -7.4400   27.6362 C   0  0  0  0  0  0  0  0  0  0  0  0
    5.4553   -8.5933   27.9644 C   0  0  0  0  0  0  0  0  0  0  0  0
   -2.3870  -12.8440   19.2512 C   0  0  0  0  0  0  0  0  0  0  0  0
    0.5331   -7.6964   16.2751 C   0  0  0  0  0  0  0  0  0  0  0  0
   -0.6740  -10.8737   18.0482 C   0  0  0  0  0  0  0  0  0  0  0  0
    5.6751  -10.5870   29.7637 O   0  0  0  0  0  0  0  0  0  0  0  0
    1.7612   -5.6483   26.7172 C   0  0  0  0  0  0  0  0  0  0  0  0
    0.2221   -9.8326   17.4055 C   0  0  0  0  0  0  0  0  0  0  0  0
    4.3850   -9.0730   28.6745 C   0  0  0  0  0  0  0  0  0  0  0  0
  1  7  4  0
  1 22  4  0
  2 17  4  0
  2 20  4  0
  2 28  4  0
  3  6  1  0
  3 19  1  0
  4 19  1  0
  4 26  1  0
  5 17  4  0
  5 18  4  0
  6 20  1  0
  6 26  1  0
  7 24  4  0
  8 15  4  0
  8 24  4  0
  9 14  4  0
  9 21  4  0
 10 12  4  0
 10 27  4  0
 11 12  4  0
 11 23  4  0
 13 23  4  0
 13 27  4  0
 14 20  4  0
 15 22  4  0
 16 18  4  0
 16 25  2  0
 16 28  4  0
 21 28  4  0
 24 27  1  0
M  END
$$$$

 Created by Python create_sdf_string function

 28 31  0  0  0  0  0  0  0  0999 V2000
   -1.0054  -13.0622   19.1198 C   0  0  0  0  0  0  0  0  0  0  0  0
    3.1478   -8.5360   28.5161 C   0  0  0  0  0  0  0  0  0  0  0  0
    0.5798   -7.1906   27.9330 C   0  0  0  0  0  0  0  0  0  0  0  0
    0.3978   -5.1561   26.6955 C   0  0  0  0  0  0  0  0  0  0  0  0
    2.3063  -10.0533   30.0125 C   0  0  0  0  0  0  0  0  0  0  0  0
    1.8591   -6.8254   27.4685 N   0  0  0  0  0  0  0  0  0  0  0  0
   -0.2167  -12.1055   18.5568 C   0  0  0  0  0  0  0  0  0  0  0  0
   -2.0661  -10.6994   18.1916 C   0  0  0  0  0  0  0  0  0  0  0  0
    5.2703   -7.5691   27.1123 C   0  0  0  0  0  0  0  0  0  0  0  0
    1.6204   -9.9887   17.2935 C   0  0  0  0  0  0  0  0  0  0  0  0
    1.8931   -7.9265   16.2047 C   0  0  0  0  0  0  0  0  0  0  0  0
    2.4396   -9.0801   16.7132 C   0  0  0  0  0  0  0  0  0  0  0  0
   -0.2575   -8.6234   16.8582 C   0  0  0  0  0  0  0  0  0  0  0  0
    4.0614   -7.0367   27.0106 N   0  0  0  0  0  0  0  0  0  0  0  0
   -2.9133  -11.6279   18.7578 C   0  0  0  0  0  0  0  0  0  0  0  0
    4.5688  -10.1291   29.5758 C   0  0  0  0  0  0  0  0  0  0  0  0
    2.1008   -9.0410   29.1852 N   0  0  0  0  0  0  0  0  0  0  0  0
    3.4829  -10.5697   30.2091 N   0  0  0  0  0  0  0  0  0  0  0  0
   -0.3363   -6.1172   27.5628 C   0  0  0  0  0  0  0  0  0  0  0  0
    3.0331   -7.4400   27.6362 C   0  0  0  0  0  0  0  0  0  0  0  0
    5.4553   -8.5933   27.9644 C   0  0  0  0  0  0  0  0  0  0  0  0
   -2.3870  -12.8440   19.2512 C   0  0  0  0  0  0  0  0  0  0  0  0
    0.5331   -7.6964   16.2751 C   0  0  0  0  0  0  0  0  0  0  0  0
   -0.6740  -10.8737   18.0482 C   0  0  0  0  0  0  0  0  0  0  0  0
    5.6751  -10.5870   29.7637 O   0  0  0  0  0  0  0  0  0  0  0  0
    1.7612   -5.6483   26.7172 C   0  0  0  0  0  0  0  0  0  0  0  0
    0.2221   -9.8326   17.4055 C   0  0  0  0  0  0  0  0  0  0  0  0
    4.3850   -9.0730   28.6745 C   0  0  0  0  0  0  0  0  0  0  0  0
  1  7  4  0
  1 22  4  0
  2 17  4  0
  2 20  4  0
  2 28  4  0
  3  6  1  0
  3 19  1  0
  4 19  1  0
  4 26  1  0
  5 17  4  0
  5 18  4  0
  6 20  1  0
  6 26  1  0
  7 24  4  0
  8 15  4  0
  8 24  4  0
  9 14  4  0
  9 21  4  0
 10 12  4  0
 10 27  4  0
 11 12  4  0
 11 23  4  0
 13 23  4  0
 13 27  4  0
 14 20  4  0
 15 22  4  0
 16 18  4  0
 16 25  2  0
 16 28  4  0
 21 28  4  0
 24 27  1  0
M  END
$$$$

 Created by Python create_sdf_string function

 28 31  0  0  0  0  0  0  0  0999 V2000
   -1.0054  -13.0622   19.1198 C   0  0  0  0  0  0  0  0  0  0  0  0
    3.1478   -8.5360   28.5161 C   0  0  0  0  0  0  0  0  0  0  0  0
    0.5798   -7.1906   27.9330 C   0  0  0  0  0  0  0  0  0  0  0  0
    0.3978   -5.1561   26.6955 C   0  0  0  0  0  0  0  0  0  0  0  0
    2.3063  -10.0533   30.0125 C   0  0  0  0  0  0  0  0  0  0  0  0
    1.8591   -6.8254   27.4685 N   0  0  0  0  0  0  0  0  0  0  0  0
   -0.2167  -12.1055   18.5568 C   0  0  0  0  0  0  0  0  0  0  0  0
   -2.0661  -10.6994   18.1916 C   0  0  0  0  0  0  0  0  0  0  0  0
    5.2703   -7.5691   27.1123 C   0  0  0  0  0  0  0  0  0  0  0  0
    1.6204   -9.9887   17.2935 C   0  0  0  0  0  0  0  0  0  0  0  0
    1.8931   -7.9265   16.2047 C   0  0  0  0  0  0  0  0  0  0  0  0
    2.4396   -9.0801   16.7132 C   0  0  0  0  0  0  0  0  0  0  0  0
   -0.2575   -8.6234   16.8582 C   0  0  0  0  0  0  0  0  0  0  0  0
    4.0614   -7.0367   27.0106 N   0  0  0  0  0  0  0  0  0  0  0  0
   -2.9133  -11.6279   18.7578 C   0  0  0  0  0  0  0  0  0  0  0  0
    4.5688  -10.1291   29.5758 C   0  0  0  0  0  0  0  0  0  0  0  0
    2.1008   -9.0410   29.1852 N   0  0  0  0  0  0  0  0  0  0  0  0
    3.4829  -10.5697   30.2091 N   0  0  0  0  0  0  0  0  0  0  0  0
   -0.3363   -6.1172   27.5628 C   0  0  0  0  0  0  0  0  0  0  0  0
    3.0331   -7.4400   27.6362 C   0  0  0  0  0  0  0  0  0  0  0  0
    5.4553   -8.5933   27.9644 C   0  0  0  0  0  0  0  0  0  0  0  0
   -2.3870  -12.8440   19.2512 C   0  0  0  0  0  0  0  0  0  0  0  0
    0.5331   -7.6964   16.2751 C   0  0  0  0  0  0  0  0  0  0  0  0
   -0.6740  -10.8737   18.0482 C   0  0  0  0  0  0  0  0  0  0  0  0
    5.6751  -10.5870   29.7637 O   0  0  0  0  0  0  0  0  0  0  0  0
    1.7612   -5.6483   26.7172 C   0  0  0  0  0  0  0  0  0  0  0  0
    0.2221   -9.8326   17.4055 C   0  0  0  0  0  0  0  0  0  0  0  0
    4.3850   -9.0730   28.6745 C   0  0  0  0  0  0  0  0  0  0  0  0
  1  7  4  0
  1 22  4  0
  2 17  4  0
  2 20  4  0
  2 28  4  0
  3  6  1  0
  3 19  1  0
  4 19  1  0
  4 26  1  0
  5 17  4  0
  5 18  4  0
  6 20  1  0
  6 26  1  0
  7 24  4  0
  8 15  4  0
  8 24  4  0
  9 14  4  0
  9 21  4  0
 10 12  4  0
 10 27  4  0
 11 12  4  0
 11 23  4  0
 13 23  4  0
 13 27  4  0
 14 20  4  0
 15 22  4  0
 16 18  4  0
 16 25  2  0
 16 28  4  0
 21 28  4  0
 24 27  1  0
M  END
$$$$

 Created by Python create_sdf_string function

 28 31  0  0  0  0  0  0  0  0999 V2000
   -1.0054  -13.0622   19.1198 C   0  0  0  0  0  0  0  0  0  0  0  0
    3.1478   -8.5360   28.5161 C   0  0  0  0  0  0  0  0  0  0  0  0
    0.5798   -7.1906   27.9330 C   0  0  0  0  0  0  0  0  0  0  0  0
    0.3978   -5.1561   26.6955 C   0  0  0  0  0  0  0  0  0  0  0  0
    2.3063  -10.0533   30.0125 C   0  0  0  0  0  0  0  0  0  0  0  0
    1.8591   -6.8254   27.4685 N   0  0  0  0  0  0  0  0  0  0  0  0
   -0.2167  -12.1055   18.5568 C   0  0  0  0  0  0  0  0  0  0  0  0
   -2.0661  -10.6994   18.1916 C   0  0  0  0  0  0  0  0  0  0  0  0
    5.2703   -7.5691   27.1123 C   0  0  0  0  0  0  0  0  0  0  0  0
    1.6204   -9.9887   17.2935 C   0  0  0  0  0  0  0  0  0  0  0  0
    1.8931   -7.9265   16.2047 C   0  0  0  0  0  0  0  0  0  0  0  0
    2.4396   -9.0801   16.7132 C   0  0  0  0  0  0  0  0  0  0  0  0
   -0.2575   -8.6234   16.8582 C   0  0  0  0  0  0  0  0  0  0  0  0
    4.0614   -7.0367   27.0106 N   0  0  0  0  0  0  0  0  0  0  0  0
   -2.9133  -11.6279   18.7578 C   0  0  0  0  0  0  0  0  0  0  0  0
    4.5688  -10.1291   29.5758 C   0  0  0  0  0  0  0  0  0  0  0  0
    2.1008   -9.0410   29.1852 N   0  0  0  0  0  0  0  0  0  0  0  0
    3.4829  -10.5697   30.2091 N   0  0  0  0  0  0  0  0  0  0  0  0
   -0.3363   -6.1172   27.5628 C   0  0  0  0  0  0  0  0  0  0  0  0
    3.0331   -7.4400   27.6362 C   0  0  0  0  0  0  0  0  0  0  0  0
    5.4553   -8.5933   27.9644 C   0  0  0  0  0  0  0  0  0  0  0  0
   -2.3870  -12.8440   19.2512 C   0  0  0  0  0  0  0  0  0  0  0  0
    0.5331   -7.6964   16.2751 C   0  0  0  0  0  0  0  0  0  0  0  0
   -0.6740  -10.8737   18.0482 C   0  0  0  0  0  0  0  0  0  0  0  0
    5.6751  -10.5870   29.7637 O   0  0  0  0  0  0  0  0  0  0  0  0
    1.7612   -5.6483   26.7172 C   0  0  0  0  0  0  0  0  0  0  0  0
    0.2221   -9.8326   17.4055 C   0  0  0  0  0  0  0  0  0  0  0  0
    4.3850   -9.0730   28.6745 C   0  0  0  0  0  0  0  0  0  0  0  0
  1  7  4  0
  1 22  4  0
  2 17  4  0
  2 20  4  0
  2 28  4  0
  3  6  1  0
  3 19  1  0
  4 19  1  0
  4 26  1  0
  5 17  4  0
  5 18  4  0
  6 20  1  0
  6 26  1  0
  7 24  4  0
  8 15  4  0
  8 24  4  0
  9 14  4  0
  9 21  4  0
 10 12  4  0
 10 27  4  0
 11 12  4  0
 11 23  4  0
 13 23  4  0
 13 27  4  0
 14 20  4  0
 15 22  4  0
 16 18  4  0
 16 25  2  0
 16 28  4  0
 21 28  4  0
 24 27  1  0
M  END
$$$$

 Created by Python create_sdf_string function

 28 31  0  0  0  0  0  0  0  0999 V2000
   -1.0054  -13.0622   19.1198 C   0  0  0  0  0  0  0  0  0  0  0  0
    3.1478   -8.5360   28.5161 C   0  0  0  0  0  0  0  0  0  0  0  0
    0.5798   -7.1906   27.9330 C   0  0  0  0  0  0  0  0  0  0  0  0
    0.3978   -5.1561   26.6955 C   0  0  0  0  0  0  0  0  0  0  0  0
    2.3063  -10.0533   30.0125 C   0  0  0  0  0  0  0  0  0  0  0  0
    1.8591   -6.8254   27.4685 N   0  0  0  0  0  0  0  0  0  0  0  0
   -0.2167  -12.1055   18.5568 C   0  0  0  0  0  0  0  0  0  0  0  0
   -2.0661  -10.6994   18.1916 C   0  0  0  0  0  0  0  0  0  0  0  0
    5.2703   -7.5691   27.1123 C   0  0  0  0  0  0  0  0  0  0  0  0
    1.6204   -9.9887   17.2935 C   0  0  0  0  0  0  0  0  0  0  0  0
    1.8931   -7.9265   16.2047 C   0  0  0  0  0  0  0  0  0  0  0  0
    2.4396   -9.0801   16.7132 C   0  0  0  0  0  0  0  0  0  0  0  0
   -0.2575   -8.6234   16.8582 C   0  0  0  0  0  0  0  0  0  0  0  0
    4.0614   -7.0367   27.0106 N   0  0  0  0  0  0  0  0  0  0  0  0
   -2.9133  -11.6279   18.7578 C   0  0  0  0  0  0  0  0  0  0  0  0
    4.5688  -10.1291   29.5758 C   0  0  0  0  0  0  0  0  0  0  0  0
    2.1008   -9.0410   29.1852 N   0  0  0  0  0  0  0  0  0  0  0  0
    3.4829  -10.5697   30.2091 N   0  0  0  0  0  0  0  0  0  0  0  0
   -0.3363   -6.1172   27.5628 C   0  0  0  0  0  0  0  0  0  0  0  0
    3.0331   -7.4400   27.6362 C   0  0  0  0  0  0  0  0  0  0  0  0
    5.4553   -8.5933   27.9644 C   0  0  0  0  0  0  0  0  0  0  0  0
   -2.3870  -12.8440   19.2512 C   0  0  0  0  0  0  0  0  0  0  0  0
    0.5331   -7.6964   16.2751 C   0  0  0  0  0  0  0  0  0  0  0  0
   -0.6740  -10.8737   18.0482 C   0  0  0  0  0  0  0  0  0  0  0  0
    5.6751  -10.5870   29.7637 O   0  0  0  0  0  0  0  0  0  0  0  0
    1.7612   -5.6483   26.7172 C   0  0  0  0  0  0  0  0  0  0  0  0
    0.2221   -9.8326   17.4055 C   0  0  0  0  0  0  0  0  0  0  0  0
    4.3850   -9.0730   28.6745 C   0  0  0  0  0  0  0  0  0  0  0  0
  1  7  4  0
  1 22  4  0
  2 17  4  0
  2 20  4  0
  2 28  4  0
  3  6  1  0
  3 19  1  0
  4 19  1  0
  4 26  1  0
  5 17  4  0
  5 18  4  0
  6 20  1  0
  6 26  1  0
  7 24  4  0
  8 15  4  0
  8 24  4  0
  9 14  4  0
  9 21  4  0
 10 12  4  0
 10 27  4  0
 11 12  4  0
 11 23  4  0
 13 23  4  0
 13 27  4  0
 14 20  4  0
 15 22  4  0
 16 18  4  0
 16 25  2  0
 16 28  4  0
 21 28  4  0
 24 27  1  0
M  END
$$$$

 Created by Python create_sdf_string function

 28 31  0  0  0  0  0  0  0  0999 V2000
   -1.0054  -13.0622   19.1198 C   0  0  0  0  0  0  0  0  0  0  0  0
    3.1478   -8.5360   28.5161 C   0  0  0  0  0  0  0  0  0  0  0  0
    0.5798   -7.1906   27.9330 C   0  0  0  0  0  0  0  0  0  0  0  0
    0.3978   -5.1561   26.6955 C   0  0  0  0  0  0  0  0  0  0  0  0
    2.3063  -10.0533   30.0125 C   0  0  0  0  0  0  0  0  0  0  0  0
    1.8591   -6.8254   27.4685 N   0  0  0  0  0  0  0  0  0  0  0  0
   -0.2167  -12.1055   18.5568 C   0  0  0  0  0  0  0  0  0  0  0  0
   -2.0661  -10.6994   18.1916 C   0  0  0  0  0  0  0  0  0  0  0  0
    5.2703   -7.5691   27.1123 C   0  0  0  0  0  0  0  0  0  0  0  0
    1.6204   -9.9887   17.2935 C   0  0  0  0  0  0  0  0  0  0  0  0
    1.8931   -7.9265   16.2047 C   0  0  0  0  0  0  0  0  0  0  0  0
    2.4396   -9.0801   16.7132 C   0  0  0  0  0  0  0  0  0  0  0  0
   -0.2575   -8.6234   16.8582 C   0  0  0  0  0  0  0  0  0  0  0  0
    4.0614   -7.0367   27.0106 N   0  0  0  0  0  0  0  0  0  0  0  0
   -2.9133  -11.6279   18.7578 C   0  0  0  0  0  0  0  0  0  0  0  0
    4.5688  -10.1291   29.5758 C   0  0  0  0  0  0  0  0  0  0  0  0
    2.1008   -9.0410   29.1852 N   0  0  0  0  0  0  0  0  0  0  0  0
    3.4829  -10.5697   30.2091 N   0  0  0  0  0  0  0  0  0  0  0  0
   -0.3363   -6.1172   27.5628 C   0  0  0  0  0  0  0  0  0  0  0  0
    3.0331   -7.4400   27.6362 C   0  0  0  0  0  0  0  0  0  0  0  0
    5.4553   -8.5933   27.9644 C   0  0  0  0  0  0  0  0  0  0  0  0
   -2.3870  -12.8440   19.2512 C   0  0  0  0  0  0  0  0  0  0  0  0
    0.5331   -7.6964   16.2751 C   0  0  0  0  0  0  0  0  0  0  0  0
   -0.6740  -10.8737   18.0482 C   0  0  0  0  0  0  0  0  0  0  0  0
    5.6751  -10.5870   29.7637 O   0  0  0  0  0  0  0  0  0  0  0  0
    1.7612   -5.6483   26.7172 C   0  0  0  0  0  0  0  0  0  0  0  0
    0.2221   -9.8326   17.4055 C   0  0  0  0  0  0  0  0  0  0  0  0
    4.3850   -9.0730   28.6745 C   0  0  0  0  0  0  0  0  0  0  0  0
  1  7  4  0
  1 22  4  0
  2 17  4  0
  2 20  4  0
  2 28  4  0
  3  6  1  0
  3 19  1  0
  4 19  1  0
  4 26  1  0
  5 17  4  0
  5 18  4  0
  6 20  1  0
  6 26  1  0
  7 24  4  0
  8 15  4  0
  8 24  4  0
  9 14  4  0
  9 21  4  0
 10 12  4  0
 10 27  4  0
 11 12  4  0
 11 23  4  0
 13 23  4  0
 13 27  4  0
 14 20  4  0
 15 22  4  0
 16 18  4  0
 16 25  2  0
 16 28  4  0
 21 28  4  0
 24 27  1  0
M  END
$$$$

 Created by Python create_sdf_string function

 28 31  0  0  0  0  0  0  0  0999 V2000
   -1.0054  -13.0622   19.1198 C   0  0  0  0  0  0  0  0  0  0  0  0
    3.1478   -8.5360   28.5161 C   0  0  0  0  0  0  0  0  0  0  0  0
    0.5798   -7.1906   27.9330 C   0  0  0  0  0  0  0  0  0  0  0  0
    0.3978   -5.1561   26.6955 C   0  0  0  0  0  0  0  0  0  0  0  0
    2.3063  -10.0533   30.0125 C   0  0  0  0  0  0  0  0  0  0  0  0
    1.8591   -6.8254   27.4685 N   0  0  0  0  0  0  0  0  0  0  0  0
   -0.2167  -12.1055   18.5568 C   0  0  0  0  0  0  0  0  0  0  0  0
   -2.0661  -10.6994   18.1916 C   0  0  0  0  0  0  0  0  0  0  0  0
    5.2703   -7.5691   27.1123 C   0  0  0  0  0  0  0  0  0  0  0  0
    1.6204   -9.9887   17.2935 C   0  0  0  0  0  0  0  0  0  0  0  0
    1.8931   -7.9265   16.2047 C   0  0  0  0  0  0  0  0  0  0  0  0
    2.4396   -9.0801   16.7132 C   0  0  0  0  0  0  0  0  0  0  0  0
   -0.2575   -8.6234   16.8582 C   0  0  0  0  0  0  0  0  0  0  0  0
    4.0614   -7.0367   27.0106 N   0  0  0  0  0  0  0  0  0  0  0  0
   -2.9133  -11.6279   18.7578 C   0  0  0  0  0  0  0  0  0  0  0  0
    4.5688  -10.1291   29.5758 C   0  0  0  0  0  0  0  0  0  0  0  0
    2.1008   -9.0410   29.1852 N   0  0  0  0  0  0  0  0  0  0  0  0
    3.4829  -10.5697   30.2091 N   0  0  0  0  0  0  0  0  0  0  0  0
   -0.3363   -6.1172   27.5628 C   0  0  0  0  0  0  0  0  0  0  0  0
    3.0331   -7.4400   27.6362 C   0  0  0  0  0  0  0  0  0  0  0  0
    5.4553   -8.5933   27.9644 C   0  0  0  0  0  0  0  0  0  0  0  0
   -2.3870  -12.8440   19.2512 C   0  0  0  0  0  0  0  0  0  0  0  0
    0.5331   -7.6964   16.2751 C   0  0  0  0  0  0  0  0  0  0  0  0
   -0.6740  -10.8737   18.0482 C   0  0  0  0  0  0  0  0  0  0  0  0
    5.6751  -10.5870   29.7637 O   0  0  0  0  0  0  0  0  0  0  0  0
    1.7612   -5.6483   26.7172 C   0  0  0  0  0  0  0  0  0  0  0  0
    0.2221   -9.8326   17.4055 C   0  0  0  0  0  0  0  0  0  0  0  0
    4.3850   -9.0730   28.6745 C   0  0  0  0  0  0  0  0  0  0  0  0
  1  7  4  0
  1 22  4  0
  2 17  4  0
  2 20  4  0
  2 28  4  0
  3  6  1  0
  3 19  1  0
  4 19  1  0
  4 26  1  0
  5 17  4  0
  5 18  4  0
  6 20  1  0
  6 26  1  0
  7 24  4  0
  8 15  4  0
  8 24  4  0
  9 14  4  0
  9 21  4  0
 10 12  4  0
 10 27  4  0
 11 12  4  0
 11 23  4  0
 13 23  4  0
 13 27  4  0
 14 20  4  0
 15 22  4  0
 16 18  4  0
 16 25  2  0
 16 28  4  0
 21 28  4  0
 24 27  1  0
M  END
$$$$

 Created by Python create_sdf_string function

 28 31  0  0  0  0  0  0  0  0999 V2000
   -1.0054  -13.0622   19.1198 C   0  0  0  0  0  0  0  0  0  0  0  0
    3.1478   -8.5360   28.5161 C   0  0  0  0  0  0  0  0  0  0  0  0
    0.5798   -7.1906   27.9330 C   0  0  0  0  0  0  0  0  0  0  0  0
    0.3978   -5.1561   26.6955 C   0  0  0  0  0  0  0  0  0  0  0  0
    2.3063  -10.0533   30.0125 C   0  0  0  0  0  0  0  0  0  0  0  0
    1.8591   -6.8254   27.4685 N   0  0  0  0  0  0  0  0  0  0  0  0
   -0.2167  -12.1055   18.5568 C   0  0  0  0  0  0  0  0  0  0  0  0
   -2.0661  -10.6994   18.1916 C   0  0  0  0  0  0  0  0  0  0  0  0
    5.2703   -7.5691   27.1123 C   0  0  0  0  0  0  0  0  0  0  0  0
    1.6204   -9.9887   17.2935 C   0  0  0  0  0  0  0  0  0  0  0  0
    1.8931   -7.9265   16.2047 C   0  0  0  0  0  0  0  0  0  0  0  0
    2.4396   -9.0801   16.7132 C   0  0  0  0  0  0  0  0  0  0  0  0
   -0.2575   -8.6234   16.8582 C   0  0  0  0  0  0  0  0  0  0  0  0
    4.0614   -7.0367   27.0106 N   0  0  0  0  0  0  0  0  0  0  0  0
   -2.9133  -11.6279   18.7578 C   0  0  0  0  0  0  0  0  0  0  0  0
    4.5688  -10.1291   29.5758 C   0  0  0  0  0  0  0  0  0  0  0  0
    2.1008   -9.0410   29.1852 N   0  0  0  0  0  0  0  0  0  0  0  0
    3.4829  -10.5697   30.2091 N   0  0  0  0  0  0  0  0  0  0  0  0
   -0.3363   -6.1172   27.5628 C   0  0  0  0  0  0  0  0  0  0  0  0
    3.0331   -7.4400   27.6362 C   0  0  0  0  0  0  0  0  0  0  0  0
    5.4553   -8.5933   27.9644 C   0  0  0  0  0  0  0  0  0  0  0  0
   -2.3870  -12.8440   19.2512 C   0  0  0  0  0  0  0  0  0  0  0  0
    0.5331   -7.6964   16.2751 C   0  0  0  0  0  0  0  0  0  0  0  0
   -0.6740  -10.8737   18.0482 C   0  0  0  0  0  0  0  0  0  0  0  0
    5.6751  -10.5870   29.7637 O   0  0  0  0  0  0  0  0  0  0  0  0
    1.7612   -5.6483   26.7172 C   0  0  0  0  0  0  0  0  0  0  0  0
    0.2221   -9.8326   17.4055 C   0  0  0  0  0  0  0  0  0  0  0  0
    4.3850   -9.0730   28.6745 C   0  0  0  0  0  0  0  0  0  0  0  0
  1  7  4  0
  1 22  4  0
  2 17  4  0
  2 20  4  0
  2 28  4  0
  3  6  1  0
  3 19  1  0
  4 19  1  0
  4 26  1  0
  5 17  4  0
  5 18  4  0
  6 20  1  0
  6 26  1  0
  7 24  4  0
  8 15  4  0
  8 24  4  0
  9 14  4  0
  9 21  4  0
 10 12  4  0
 10 27  4  0
 11 12  4  0
 11 23  4  0
 13 23  4  0
 13 27  4  0
 14 20  4  0
 15 22  4  0
 16 18  4  0
 16 25  2  0
 16 28  4  0
 21 28  4  0
 24 27  1  0
M  END
$$$$

 Created by Python create_sdf_string function

 28 31  0  0  0  0  0  0  0  0999 V2000
   -1.0054  -13.0622   19.1198 C   0  0  0  0  0  0  0  0  0  0  0  0
    3.1478   -8.5360   28.5161 C   0  0  0  0  0  0  0  0  0  0  0  0
    0.5798   -7.1906   27.9330 C   0  0  0  0  0  0  0  0  0  0  0  0
    0.3978   -5.1561   26.6955 C   0  0  0  0  0  0  0  0  0  0  0  0
    2.3063  -10.0533   30.0125 C   0  0  0  0  0  0  0  0  0  0  0  0
    1.8591   -6.8254   27.4685 N   0  0  0  0  0  0  0  0  0  0  0  0
   -0.2167  -12.1055   18.5568 C   0  0  0  0  0  0  0  0  0  0  0  0
   -2.0661  -10.6994   18.1916 C   0  0  0  0  0  0  0  0  0  0  0  0
    5.2703   -7.5691   27.1123 C   0  0  0  0  0  0  0  0  0  0  0  0
    1.6204   -9.9887   17.2935 C   0  0  0  0  0  0  0  0  0  0  0  0
    1.8931   -7.9265   16.2047 C   0  0  0  0  0  0  0  0  0  0  0  0
    2.4396   -9.0801   16.7132 C   0  0  0  0  0  0  0  0  0  0  0  0
   -0.2575   -8.6234   16.8582 C   0  0  0  0  0  0  0  0  0  0  0  0
    4.0614   -7.0367   27.0106 N   0  0  0  0  0  0  0  0  0  0  0  0
   -2.9133  -11.6279   18.7578 C   0  0  0  0  0  0  0  0  0  0  0  0
    4.5688  -10.1291   29.5758 C   0  0  0  0  0  0  0  0  0  0  0  0
    2.1008   -9.0410   29.1852 N   0  0  0  0  0  0  0  0  0  0  0  0
    3.4829  -10.5697   30.2091 N   0  0  0  0  0  0  0  0  0  0  0  0
   -0.3363   -6.1172   27.5628 C   0  0  0  0  0  0  0  0  0  0  0  0
    3.0331   -7.4400   27.6362 C   0  0  0  0  0  0  0  0  0  0  0  0
    5.4553   -8.5933   27.9644 C   0  0  0  0  0  0  0  0  0  0  0  0
   -2.3870  -12.8440   19.2512 C   0  0  0  0  0  0  0  0  0  0  0  0
    0.5331   -7.6964   16.2751 C   0  0  0  0  0  0  0  0  0  0  0  0
   -0.6740  -10.8737   18.0482 C   0  0  0  0  0  0  0  0  0  0  0  0
    5.6751  -10.5870   29.7637 O   0  0  0  0  0  0  0  0  0  0  0  0
    1.7612   -5.6483   26.7172 C   0  0  0  0  0  0  0  0  0  0  0  0
    0.2221   -9.8326   17.4055 C   0  0  0  0  0  0  0  0  0  0  0  0
    4.3850   -9.0730   28.6745 C   0  0  0  0  0  0  0  0  0  0  0  0
  1  7  4  0
  1 22  4  0
  2 17  4  0
  2 20  4  0
  2 28  4  0
  3  6  1  0
  3 19  1  0
  4 19  1  0
  4 26  1  0
  5 17  4  0
  5 18  4  0
  6 20  1  0
  6 26  1  0
  7 24  4  0
  8 15  4  0
  8 24  4  0
  9 14  4  0
  9 21  4  0
 10 12  4  0
 10 27  4  0
 11 12  4  0
 11 23  4  0
 13 23  4  0
 13 27  4  0
 14 20  4  0
 15 22  4  0
 16 18  4  0
 16 25  2  0
 16 28  4  0
 21 28  4  0
 24 27  1  0
M  END
$$$$

 Created by Python create_sdf_string function

 28 31  0  0  0  0  0  0  0  0999 V2000
   -1.0054  -13.0622   19.1198 C   0  0  0  0  0  0  0  0  0  0  0  0
    3.1478   -8.5360   28.5161 C   0  0  0  0  0  0  0  0  0  0  0  0
    0.5798   -7.1906   27.9330 C   0  0  0  0  0  0  0  0  0  0  0  0
    0.3978   -5.1561   26.6955 C   0  0  0  0  0  0  0  0  0  0  0  0
    2.3063  -10.0533   30.0125 C   0  0  0  0  0  0  0  0  0  0  0  0
    1.8591   -6.8254   27.4685 N   0  0  0  0  0  0  0  0  0  0  0  0
   -0.2167  -12.1055   18.5568 C   0  0  0  0  0  0  0  0  0  0  0  0
   -2.0661  -10.6994   18.1916 C   0  0  0  0  0  0  0  0  0  0  0  0
    5.2703   -7.5691   27.1123 C   0  0  0  0  0  0  0  0  0  0  0  0
    1.6204   -9.9887   17.2935 C   0  0  0  0  0  0  0  0  0  0  0  0
    1.8931   -7.9265   16.2047 C   0  0  0  0  0  0  0  0  0  0  0  0
    2.4396   -9.0801   16.7132 C   0  0  0  0  0  0  0  0  0  0  0  0
   -0.2575   -8.6234   16.8582 C   0  0  0  0  0  0  0  0  0  0  0  0
    4.0614   -7.0367   27.0106 N   0  0  0  0  0  0  0  0  0  0  0  0
   -2.9133  -11.6279   18.7578 C   0  0  0  0  0  0  0  0  0  0  0  0
    4.5688  -10.1291   29.5758 C   0  0  0  0  0  0  0  0  0  0  0  0
    2.1008   -9.0410   29.1852 N   0  0  0  0  0  0  0  0  0  0  0  0
    3.4829  -10.5697   30.2091 N   0  0  0  0  0  0  0  0  0  0  0  0
   -0.3363   -6.1172   27.5628 C   0  0  0  0  0  0  0  0  0  0  0  0
    3.0331   -7.4400   27.6362 C   0  0  0  0  0  0  0  0  0  0  0  0
    5.4553   -8.5933   27.9644 C   0  0  0  0  0  0  0  0  0  0  0  0
   -2.3870  -12.8440   19.2512 C   0  0  0  0  0  0  0  0  0  0  0  0
    0.5331   -7.6964   16.2751 C   0  0  0  0  0  0  0  0  0  0  0  0
   -0.6740  -10.8737   18.0482 C   0  0  0  0  0  0  0  0  0  0  0  0
    5.6751  -10.5870   29.7637 O   0  0  0  0  0  0  0  0  0  0  0  0
    1.7612   -5.6483   26.7172 C   0  0  0  0  0  0  0  0  0  0  0  0
    0.2221   -9.8326   17.4055 C   0  0  0  0  0  0  0  0  0  0  0  0
    4.3850   -9.0730   28.6745 C   0  0  0  0  0  0  0  0  0  0  0  0
  1  7  4  0
  1 22  4  0
  2 17  4  0
  2 20  4  0
  2 28  4  0
  3  6  1  0
  3 19  1  0
  4 19  1  0
  4 26  1  0
  5 17  4  0
  5 18  4  0
  6 20  1  0
  6 26  1  0
  7 24  4  0
  8 15  4  0
  8 24  4  0
  9 14  4  0
  9 21  4  0
 10 12  4  0
 10 27  4  0
 11 12  4  0
 11 23  4  0
 13 23  4  0
 13 27  4  0
 14 20  4  0
 15 22  4  0
 16 18  4  0
 16 25  2  0
 16 28  4  0
 21 28  4  0
 24 27  1  0
M  END
$$$$

 Created by Python create_sdf_string function

 28 31  0  0  0  0  0  0  0  0999 V2000
   -1.0054  -13.0622   19.1198 C   0  0  0  0  0  0  0  0  0  0  0  0
    3.1478   -8.5360   28.5161 C   0  0  0  0  0  0  0  0  0  0  0  0
    0.5798   -7.1906   27.9330 C   0  0  0  0  0  0  0  0  0  0  0  0
    0.3978   -5.1561   26.6955 C   0  0  0  0  0  0  0  0  0  0  0  0
    2.3063  -10.0533   30.0125 C   0  0  0  0  0  0  0  0  0  0  0  0
    1.8591   -6.8254   27.4685 N   0  0  0  0  0  0  0  0  0  0  0  0
   -0.2167  -12.1055   18.5568 C   0  0  0  0  0  0  0  0  0  0  0  0
   -2.0661  -10.6994   18.1916 C   0  0  0  0  0  0  0  0  0  0  0  0
    5.2703   -7.5691   27.1123 C   0  0  0  0  0  0  0  0  0  0  0  0
    1.6204   -9.9887   17.2935 C   0  0  0  0  0  0  0  0  0  0  0  0
    1.8931   -7.9265   16.2047 C   0  0  0  0  0  0  0  0  0  0  0  0
    2.4396   -9.0801   16.7132 C   0  0  0  0  0  0  0  0  0  0  0  0
   -0.2575   -8.6234   16.8582 C   0  0  0  0  0  0  0  0  0  0  0  0
    4.0614   -7.0367   27.0106 N   0  0  0  0  0  0  0  0  0  0  0  0
   -2.9133  -11.6279   18.7578 C   0  0  0  0  0  0  0  0  0  0  0  0
    4.5688  -10.1291   29.5758 C   0  0  0  0  0  0  0  0  0  0  0  0
    2.1008   -9.0410   29.1852 N   0  0  0  0  0  0  0  0  0  0  0  0
    3.4829  -10.5697   30.2091 N   0  0  0  0  0  0  0  0  0  0  0  0
   -0.3363   -6.1172   27.5628 C   0  0  0  0  0  0  0  0  0  0  0  0
    3.0331   -7.4400   27.6362 C   0  0  0  0  0  0  0  0  0  0  0  0
    5.4553   -8.5933   27.9644 C   0  0  0  0  0  0  0  0  0  0  0  0
   -2.3870  -12.8440   19.2512 C   0  0  0  0  0  0  0  0  0  0  0  0
    0.5331   -7.6964   16.2751 C   0  0  0  0  0  0  0  0  0  0  0  0
   -0.6740  -10.8737   18.0482 C   0  0  0  0  0  0  0  0  0  0  0  0
    5.6751  -10.5870   29.7637 O   0  0  0  0  0  0  0  0  0  0  0  0
    1.7612   -5.6483   26.7172 C   0  0  0  0  0  0  0  0  0  0  0  0
    0.2221   -9.8326   17.4055 C   0  0  0  0  0  0  0  0  0  0  0  0
    4.3850   -9.0730   28.6745 C   0  0  0  0  0  0  0  0  0  0  0  0
  1  7  4  0
  1 22  4  0
  2 17  4  0
  2 20  4  0
  2 28  4  0
  3  6  1  0
  3 19  1  0
  4 19  1  0
  4 26  1  0
  5 17  4  0
  5 18  4  0
  6 20  1  0
  6 26  1  0
  7 24  4  0
  8 15  4  0
  8 24  4  0
  9 14  4  0
  9 21  4  0
 10 12  4  0
 10 27  4  0
 11 12  4  0
 11 23  4  0
 13 23  4  0
 13 27  4  0
 14 20  4  0
 15 22  4  0
 16 18  4  0
 16 25  2  0
 16 28  4  0
 21 28  4  0
 24 27  1  0
M  END
$$$$

 Created by Python create_sdf_string function

 28 31  0  0  0  0  0  0  0  0999 V2000
   -1.0054  -13.0622   19.1198 C   0  0  0  0  0  0  0  0  0  0  0  0
    3.1478   -8.5360   28.5161 C   0  0  0  0  0  0  0  0  0  0  0  0
    0.5798   -7.1906   27.9330 C   0  0  0  0  0  0  0  0  0  0  0  0
    0.3978   -5.1561   26.6955 C   0  0  0  0  0  0  0  0  0  0  0  0
    2.3063  -10.0533   30.0125 C   0  0  0  0  0  0  0  0  0  0  0  0
    1.8591   -6.8254   27.4685 N   0  0  0  0  0  0  0  0  0  0  0  0
   -0.2167  -12.1055   18.5568 C   0  0  0  0  0  0  0  0  0  0  0  0
   -2.0661  -10.6994   18.1916 C   0  0  0  0  0  0  0  0  0  0  0  0
    5.2703   -7.5691   27.1123 C   0  0  0  0  0  0  0  0  0  0  0  0
    1.6204   -9.9887   17.2935 C   0  0  0  0  0  0  0  0  0  0  0  0
    1.8931   -7.9265   16.2047 C   0  0  0  0  0  0  0  0  0  0  0  0
    2.4396   -9.0801   16.7132 C   0  0  0  0  0  0  0  0  0  0  0  0
   -0.2575   -8.6234   16.8582 C   0  0  0  0  0  0  0  0  0  0  0  0
    4.0614   -7.0367   27.0106 N   0  0  0  0  0  0  0  0  0  0  0  0
   -2.9133  -11.6279   18.7578 C   0  0  0  0  0  0  0  0  0  0  0  0
    4.5688  -10.1291   29.5758 C   0  0  0  0  0  0  0  0  0  0  0  0
    2.1008   -9.0410   29.1852 N   0  0  0  0  0  0  0  0  0  0  0  0
    3.4829  -10.5697   30.2091 N   0  0  0  0  0  0  0  0  0  0  0  0
   -0.3363   -6.1172   27.5628 C   0  0  0  0  0  0  0  0  0  0  0  0
    3.0331   -7.4400   27.6362 C   0  0  0  0  0  0  0  0  0  0  0  0
    5.4553   -8.5933   27.9644 C   0  0  0  0  0  0  0  0  0  0  0  0
   -2.3870  -12.8440   19.2512 C   0  0  0  0  0  0  0  0  0  0  0  0
    0.5331   -7.6964   16.2751 C   0  0  0  0  0  0  0  0  0  0  0  0
   -0.6740  -10.8737   18.0482 C   0  0  0  0  0  0  0  0  0  0  0  0
    5.6751  -10.5870   29.7637 O   0  0  0  0  0  0  0  0  0  0  0  0
    1.7612   -5.6483   26.7172 C   0  0  0  0  0  0  0  0  0  0  0  0
    0.2221   -9.8326   17.4055 C   0  0  0  0  0  0  0  0  0  0  0  0
    4.3850   -9.0730   28.6745 C   0  0  0  0  0  0  0  0  0  0  0  0
  1  7  4  0
  1 22  4  0
  2 17  4  0
  2 20  4  0
  2 28  4  0
  3  6  1  0
  3 19  1  0
  4 19  1  0
  4 26  1  0
  5 17  4  0
  5 18  4  0
  6 20  1  0
  6 26  1  0
  7 24  4  0
  8 15  4  0
  8 24  4  0
  9 14  4  0
  9 21  4  0
 10 12  4  0
 10 27  4  0
 11 12  4  0
 11 23  4  0
 13 23  4  0
 13 27  4  0
 14 20  4  0
 15 22  4  0
 16 18  4  0
 16 25  2  0
 16 28  4  0
 21 28  4  0
 24 27  1  0
M  END
$$$$

 Created by Python create_sdf_string function

 28 31  0  0  0  0  0  0  0  0999 V2000
   -1.0054  -13.0622   19.1198 C   0  0  0  0  0  0  0  0  0  0  0  0
    3.1478   -8.5360   28.5161 C   0  0  0  0  0  0  0  0  0  0  0  0
    0.5798   -7.1906   27.9330 C   0  0  0  0  0  0  0  0  0  0  0  0
    0.3978   -5.1561   26.6955 C   0  0  0  0  0  0  0  0  0  0  0  0
    2.3063  -10.0533   30.0125 C   0  0  0  0  0  0  0  0  0  0  0  0
    1.8591   -6.8254   27.4685 N   0  0  0  0  0  0  0  0  0  0  0  0
   -0.2167  -12.1055   18.5568 C   0  0  0  0  0  0  0  0  0  0  0  0
   -2.0661  -10.6994   18.1916 C   0  0  0  0  0  0  0  0  0  0  0  0
    5.2703   -7.5691   27.1123 C   0  0  0  0  0  0  0  0  0  0  0  0
    1.6204   -9.9887   17.2935 C   0  0  0  0  0  0  0  0  0  0  0  0
    1.8931   -7.9265   16.2047 C   0  0  0  0  0  0  0  0  0  0  0  0
    2.4396   -9.0801   16.7132 C   0  0  0  0  0  0  0  0  0  0  0  0
   -0.2575   -8.6234   16.8582 C   0  0  0  0  0  0  0  0  0  0  0  0
    4.0614   -7.0367   27.0106 N   0  0  0  0  0  0  0  0  0  0  0  0
   -2.9133  -11.6279   18.7578 C   0  0  0  0  0  0  0  0  0  0  0  0
    4.5688  -10.1291   29.5758 C   0  0  0  0  0  0  0  0  0  0  0  0
    2.1008   -9.0410   29.1852 N   0  0  0  0  0  0  0  0  0  0  0  0
    3.4829  -10.5697   30.2091 N   0  0  0  0  0  0  0  0  0  0  0  0
   -0.3363   -6.1172   27.5628 C   0  0  0  0  0  0  0  0  0  0  0  0
    3.0331   -7.4400   27.6362 C   0  0  0  0  0  0  0  0  0  0  0  0
    5.4553   -8.5933   27.9644 C   0  0  0  0  0  0  0  0  0  0  0  0
   -2.3870  -12.8440   19.2512 C   0  0  0  0  0  0  0  0  0  0  0  0
    0.5331   -7.6964   16.2751 C   0  0  0  0  0  0  0  0  0  0  0  0
   -0.6740  -10.8737   18.0482 C   0  0  0  0  0  0  0  0  0  0  0  0
    5.6751  -10.5870   29.7637 O   0  0  0  0  0  0  0  0  0  0  0  0
    1.7612   -5.6483   26.7172 C   0  0  0  0  0  0  0  0  0  0  0  0
    0.2221   -9.8326   17.4055 C   0  0  0  0  0  0  0  0  0  0  0  0
    4.3850   -9.0730   28.6745 C   0  0  0  0  0  0  0  0  0  0  0  0
  1  7  4  0
  1 22  4  0
  2 17  4  0
  2 20  4  0
  2 28  4  0
  3  6  1  0
  3 19  1  0
  4 19  1  0
  4 26  1  0
  5 17  4  0
  5 18  4  0
  6 20  1  0
  6 26  1  0
  7 24  4  0
  8 15  4  0
  8 24  4  0
  9 14  4  0
  9 21  4  0
 10 12  4  0
 10 27  4  0
 11 12  4  0
 11 23  4  0
 13 23  4  0
 13 27  4  0
 14 20  4  0
 15 22  4  0
 16 18  4  0
 16 25  2  0
 16 28  4  0
 21 28  4  0
 24 27  1  0
M  END
$$$$

 Created by Python create_sdf_string function

 28 31  0  0  0  0  0  0  0  0999 V2000
   -1.0054  -13.0622   19.1198 C   0  0  0  0  0  0  0  0  0  0  0  0
    3.1478   -8.5360   28.5161 C   0  0  0  0  0  0  0  0  0  0  0  0
    0.5798   -7.1906   27.9330 C   0  0  0  0  0  0  0  0  0  0  0  0
    0.3978   -5.1561   26.6955 C   0  0  0  0  0  0  0  0  0  0  0  0
    2.3063  -10.0533   30.0125 C   0  0  0  0  0  0  0  0  0  0  0  0
    1.8591   -6.8254   27.4685 N   0  0  0  0  0  0  0  0  0  0  0  0
   -0.2167  -12.1055   18.5568 C   0  0  0  0  0  0  0  0  0  0  0  0
   -2.0661  -10.6994   18.1916 C   0  0  0  0  0  0  0  0  0  0  0  0
    5.2703   -7.5691   27.1123 C   0  0  0  0  0  0  0  0  0  0  0  0
    1.6204   -9.9887   17.2935 C   0  0  0  0  0  0  0  0  0  0  0  0
    1.8931   -7.9265   16.2047 C   0  0  0  0  0  0  0  0  0  0  0  0
    2.4396   -9.0801   16.7132 C   0  0  0  0  0  0  0  0  0  0  0  0
   -0.2575   -8.6234   16.8582 C   0  0  0  0  0  0  0  0  0  0  0  0
    4.0614   -7.0367   27.0106 N   0  0  0  0  0  0  0  0  0  0  0  0
   -2.9133  -11.6279   18.7578 C   0  0  0  0  0  0  0  0  0  0  0  0
    4.5688  -10.1291   29.5758 C   0  0  0  0  0  0  0  0  0  0  0  0
    2.1008   -9.0410   29.1852 N   0  0  0  0  0  0  0  0  0  0  0  0
    3.4829  -10.5697   30.2091 N   0  0  0  0  0  0  0  0  0  0  0  0
   -0.3363   -6.1172   27.5628 C   0  0  0  0  0  0  0  0  0  0  0  0
    3.0331   -7.4400   27.6362 C   0  0  0  0  0  0  0  0  0  0  0  0
    5.4553   -8.5933   27.9644 C   0  0  0  0  0  0  0  0  0  0  0  0
   -2.3870  -12.8440   19.2512 C   0  0  0  0  0  0  0  0  0  0  0  0
    0.5331   -7.6964   16.2751 C   0  0  0  0  0  0  0  0  0  0  0  0
   -0.6740  -10.8737   18.0482 C   0  0  0  0  0  0  0  0  0  0  0  0
    5.6751  -10.5870   29.7637 O   0  0  0  0  0  0  0  0  0  0  0  0
    1.7612   -5.6483   26.7172 C   0  0  0  0  0  0  0  0  0  0  0  0
    0.2221   -9.8326   17.4055 C   0  0  0  0  0  0  0  0  0  0  0  0
    4.3850   -9.0730   28.6745 C   0  0  0  0  0  0  0  0  0  0  0  0
  1  7  4  0
  1 22  4  0
  2 17  4  0
  2 20  4  0
  2 28  4  0
  3  6  1  0
  3 19  1  0
  4 19  1  0
  4 26  1  0
  5 17  4  0
  5 18  4  0
  6 20  1  0
  6 26  1  0
  7 24  4  0
  8 15  4  0
  8 24  4  0
  9 14  4  0
  9 21  4  0
 10 12  4  0
 10 27  4  0
 11 12  4  0
 11 23  4  0
 13 23  4  0
 13 27  4  0
 14 20  4  0
 15 22  4  0
 16 18  4  0
 16 25  2  0
 16 28  4  0
 21 28  4  0
 24 27  1  0
M  END
$$$$

 Created by Python create_sdf_string function

 28 31  0  0  0  0  0  0  0  0999 V2000
   -1.0054  -13.0622   19.1198 C   0  0  0  0  0  0  0  0  0  0  0  0
    3.1478   -8.5360   28.5161 C   0  0  0  0  0  0  0  0  0  0  0  0
    0.5798   -7.1906   27.9330 C   0  0  0  0  0  0  0  0  0  0  0  0
    0.3978   -5.1561   26.6955 C   0  0  0  0  0  0  0  0  0  0  0  0
    2.3063  -10.0533   30.0125 C   0  0  0  0  0  0  0  0  0  0  0  0
    1.8591   -6.8254   27.4685 N   0  0  0  0  0  0  0  0  0  0  0  0
   -0.2167  -12.1055   18.5568 C   0  0  0  0  0  0  0  0  0  0  0  0
   -2.0661  -10.6994   18.1916 C   0  0  0  0  0  0  0  0  0  0  0  0
    5.2703   -7.5691   27.1123 C   0  0  0  0  0  0  0  0  0  0  0  0
    1.6204   -9.9887   17.2935 C   0  0  0  0  0  0  0  0  0  0  0  0
    1.8931   -7.9265   16.2047 C   0  0  0  0  0  0  0  0  0  0  0  0
    2.4396   -9.0801   16.7132 C   0  0  0  0  0  0  0  0  0  0  0  0
   -0.2575   -8.6234   16.8582 C   0  0  0  0  0  0  0  0  0  0  0  0
    4.0614   -7.0367   27.0106 N   0  0  0  0  0  0  0  0  0  0  0  0
   -2.9133  -11.6279   18.7578 C   0  0  0  0  0  0  0  0  0  0  0  0
    4.5688  -10.1291   29.5758 C   0  0  0  0  0  0  0  0  0  0  0  0
    2.1008   -9.0410   29.1852 N   0  0  0  0  0  0  0  0  0  0  0  0
    3.4829  -10.5697   30.2091 N   0  0  0  0  0  0  0  0  0  0  0  0
   -0.3363   -6.1172   27.5628 C   0  0  0  0  0  0  0  0  0  0  0  0
    3.0331   -7.4400   27.6362 C   0  0  0  0  0  0  0  0  0  0  0  0
    5.4553   -8.5933   27.9644 C   0  0  0  0  0  0  0  0  0  0  0  0
   -2.3870  -12.8440   19.2512 C   0  0  0  0  0  0  0  0  0  0  0  0
    0.5331   -7.6964   16.2751 C   0  0  0  0  0  0  0  0  0  0  0  0
   -0.6740  -10.8737   18.0482 C   0  0  0  0  0  0  0  0  0  0  0  0
    5.6751  -10.5870   29.7637 O   0  0  0  0  0  0  0  0  0  0  0  0
    1.7612   -5.6483   26.7172 C   0  0  0  0  0  0  0  0  0  0  0  0
    0.2221   -9.8326   17.4055 C   0  0  0  0  0  0  0  0  0  0  0  0
    4.3850   -9.0730   28.6745 C   0  0  0  0  0  0  0  0  0  0  0  0
  1  7  4  0
  1 22  4  0
  2 17  4  0
  2 20  4  0
  2 28  4  0
  3  6  1  0
  3 19  1  0
  4 19  1  0
  4 26  1  0
  5 17  4  0
  5 18  4  0
  6 20  1  0
  6 26  1  0
  7 24  4  0
  8 15  4  0
  8 24  4  0
  9 14  4  0
  9 21  4  0
 10 12  4  0
 10 27  4  0
 11 12  4  0
 11 23  4  0
 13 23  4  0
 13 27  4  0
 14 20  4  0
 15 22  4  0
 16 18  4  0
 16 25  2  0
 16 28  4  0
 21 28  4  0
 24 27  1  0
M  END
$$$$

 Created by Python create_sdf_string function

 28 31  0  0  0  0  0  0  0  0999 V2000
   -1.0054  -13.0622   19.1198 C   0  0  0  0  0  0  0  0  0  0  0  0
    3.1478   -8.5360   28.5161 C   0  0  0  0  0  0  0  0  0  0  0  0
    0.5798   -7.1906   27.9330 C   0  0  0  0  0  0  0  0  0  0  0  0
    0.3978   -5.1561   26.6955 C   0  0  0  0  0  0  0  0  0  0  0  0
    2.3063  -10.0533   30.0125 C   0  0  0  0  0  0  0  0  0  0  0  0
    1.8591   -6.8254   27.4685 N   0  0  0  0  0  0  0  0  0  0  0  0
   -0.2167  -12.1055   18.5568 C   0  0  0  0  0  0  0  0  0  0  0  0
   -2.0661  -10.6994   18.1916 C   0  0  0  0  0  0  0  0  0  0  0  0
    5.2703   -7.5691   27.1123 C   0  0  0  0  0  0  0  0  0  0  0  0
    1.6204   -9.9887   17.2935 C   0  0  0  0  0  0  0  0  0  0  0  0
    1.8931   -7.9265   16.2047 C   0  0  0  0  0  0  0  0  0  0  0  0
    2.4396   -9.0801   16.7132 C   0  0  0  0  0  0  0  0  0  0  0  0
   -0.2575   -8.6234   16.8582 C   0  0  0  0  0  0  0  0  0  0  0  0
    4.0614   -7.0367   27.0106 N   0  0  0  0  0  0  0  0  0  0  0  0
   -2.9133  -11.6279   18.7578 C   0  0  0  0  0  0  0  0  0  0  0  0
    4.5688  -10.1291   29.5758 C   0  0  0  0  0  0  0  0  0  0  0  0
    2.1008   -9.0410   29.1852 N   0  0  0  0  0  0  0  0  0  0  0  0
    3.4829  -10.5697   30.2091 N   0  0  0  0  0  0  0  0  0  0  0  0
   -0.3363   -6.1172   27.5628 C   0  0  0  0  0  0  0  0  0  0  0  0
    3.0331   -7.4400   27.6362 C   0  0  0  0  0  0  0  0  0  0  0  0
    5.4553   -8.5933   27.9644 C   0  0  0  0  0  0  0  0  0  0  0  0
   -2.3870  -12.8440   19.2512 C   0  0  0  0  0  0  0  0  0  0  0  0
    0.5331   -7.6964   16.2751 C   0  0  0  0  0  0  0  0  0  0  0  0
   -0.6740  -10.8737   18.0482 C   0  0  0  0  0  0  0  0  0  0  0  0
    5.6751  -10.5870   29.7637 O   0  0  0  0  0  0  0  0  0  0  0  0
    1.7612   -5.6483   26.7172 C   0  0  0  0  0  0  0  0  0  0  0  0
    0.2221   -9.8326   17.4055 C   0  0  0  0  0  0  0  0  0  0  0  0
    4.3850   -9.0730   28.6745 C   0  0  0  0  0  0  0  0  0  0  0  0
  1  7  4  0
  1 22  4  0
  2 17  4  0
  2 20  4  0
  2 28  4  0
  3  6  1  0
  3 19  1  0
  4 19  1  0
  4 26  1  0
  5 17  4  0
  5 18  4  0
  6 20  1  0
  6 26  1  0
  7 24  4  0
  8 15  4  0
  8 24  4  0
  9 14  4  0
  9 21  4  0
 10 12  4  0
 10 27  4  0
 11 12  4  0
 11 23  4  0
 13 23  4  0
 13 27  4  0
 14 20  4  0
 15 22  4  0
 16 18  4  0
 16 25  2  0
 16 28  4  0
 21 28  4  0
 24 27  1  0
M  END
$$$$

 Created by Python create_sdf_string function

 28 31  0  0  0  0  0  0  0  0999 V2000
   -1.0054  -13.0622   19.1198 C   0  0  0  0  0  0  0  0  0  0  0  0
    3.1478   -8.5360   28.5161 C   0  0  0  0  0  0  0  0  0  0  0  0
    0.5798   -7.1906   27.9330 C   0  0  0  0  0  0  0  0  0  0  0  0
    0.3978   -5.1561   26.6955 C   0  0  0  0  0  0  0  0  0  0  0  0
    2.3063  -10.0533   30.0125 C   0  0  0  0  0  0  0  0  0  0  0  0
    1.8591   -6.8254   27.4685 N   0  0  0  0  0  0  0  0  0  0  0  0
   -0.2167  -12.1055   18.5568 C   0  0  0  0  0  0  0  0  0  0  0  0
   -2.0661  -10.6994   18.1916 C   0  0  0  0  0  0  0  0  0  0  0  0
    5.2703   -7.5691   27.1123 C   0  0  0  0  0  0  0  0  0  0  0  0
    1.6204   -9.9887   17.2935 C   0  0  0  0  0  0  0  0  0  0  0  0
    1.8931   -7.9265   16.2047 C   0  0  0  0  0  0  0  0  0  0  0  0
    2.4396   -9.0801   16.7132 C   0  0  0  0  0  0  0  0  0  0  0  0
   -0.2575   -8.6234   16.8582 C   0  0  0  0  0  0  0  0  0  0  0  0
    4.0614   -7.0367   27.0106 N   0  0  0  0  0  0  0  0  0  0  0  0
   -2.9133  -11.6279   18.7578 C   0  0  0  0  0  0  0  0  0  0  0  0
    4.5688  -10.1291   29.5758 C   0  0  0  0  0  0  0  0  0  0  0  0
    2.1008   -9.0410   29.1852 N   0  0  0  0  0  0  0  0  0  0  0  0
    3.4829  -10.5697   30.2091 N   0  0  0  0  0  0  0  0  0  0  0  0
   -0.3363   -6.1172   27.5628 C   0  0  0  0  0  0  0  0  0  0  0  0
    3.0331   -7.4400   27.6362 C   0  0  0  0  0  0  0  0  0  0  0  0
    5.4553   -8.5933   27.9644 C   0  0  0  0  0  0  0  0  0  0  0  0
   -2.3870  -12.8440   19.2512 C   0  0  0  0  0  0  0  0  0  0  0  0
    0.5331   -7.6964   16.2751 C   0  0  0  0  0  0  0  0  0  0  0  0
   -0.6740  -10.8737   18.0482 C   0  0  0  0  0  0  0  0  0  0  0  0
    5.6751  -10.5870   29.7637 O   0  0  0  0  0  0  0  0  0  0  0  0
    1.7612   -5.6483   26.7172 C   0  0  0  0  0  0  0  0  0  0  0  0
    0.2221   -9.8326   17.4055 C   0  0  0  0  0  0  0  0  0  0  0  0
    4.3850   -9.0730   28.6745 C   0  0  0  0  0  0  0  0  0  0  0  0
  1  7  4  0
  1 22  4  0
  2 17  4  0
  2 20  4  0
  2 28  4  0
  3  6  1  0
  3 19  1  0
  4 19  1  0
  4 26  1  0
  5 17  4  0
  5 18  4  0
  6 20  1  0
  6 26  1  0
  7 24  4  0
  8 15  4  0
  8 24  4  0
  9 14  4  0
  9 21  4  0
 10 12  4  0
 10 27  4  0
 11 12  4  0
 11 23  4  0
 13 23  4  0
 13 27  4  0
 14 20  4  0
 15 22  4  0
 16 18  4  0
 16 25  2  0
 16 28  4  0
 21 28  4  0
 24 27  1  0
M  END
$$$$

 Created by Python create_sdf_string function

 28 31  0  0  0  0  0  0  0  0999 V2000
   -1.0054  -13.0622   19.1198 C   0  0  0  0  0  0  0  0  0  0  0  0
    3.1478   -8.5360   28.5161 C   0  0  0  0  0  0  0  0  0  0  0  0
    0.5798   -7.1906   27.9330 C   0  0  0  0  0  0  0  0  0  0  0  0
    0.3978   -5.1561   26.6955 C   0  0  0  0  0  0  0  0  0  0  0  0
    2.3063  -10.0533   30.0125 C   0  0  0  0  0  0  0  0  0  0  0  0
    1.8591   -6.8254   27.4685 N   0  0  0  0  0  0  0  0  0  0  0  0
   -0.2167  -12.1055   18.5568 C   0  0  0  0  0  0  0  0  0  0  0  0
   -2.0661  -10.6994   18.1916 C   0  0  0  0  0  0  0  0  0  0  0  0
    5.2703   -7.5691   27.1123 C   0  0  0  0  0  0  0  0  0  0  0  0
    1.6204   -9.9887   17.2935 C   0  0  0  0  0  0  0  0  0  0  0  0
    1.8931   -7.9265   16.2047 C   0  0  0  0  0  0  0  0  0  0  0  0
    2.4396   -9.0801   16.7132 C   0  0  0  0  0  0  0  0  0  0  0  0
   -0.2575   -8.6234   16.8582 C   0  0  0  0  0  0  0  0  0  0  0  0
    4.0614   -7.0367   27.0106 N   0  0  0  0  0  0  0  0  0  0  0  0
   -2.9133  -11.6279   18.7578 C   0  0  0  0  0  0  0  0  0  0  0  0
    4.5688  -10.1291   29.5758 C   0  0  0  0  0  0  0  0  0  0  0  0
    2.1008   -9.0410   29.1852 N   0  0  0  0  0  0  0  0  0  0  0  0
    3.4829  -10.5697   30.2091 N   0  0  0  0  0  0  0  0  0  0  0  0
   -0.3363   -6.1172   27.5628 C   0  0  0  0  0  0  0  0  0  0  0  0
    3.0331   -7.4400   27.6362 C   0  0  0  0  0  0  0  0  0  0  0  0
    5.4553   -8.5933   27.9644 C   0  0  0  0  0  0  0  0  0  0  0  0
   -2.3870  -12.8440   19.2512 C   0  0  0  0  0  0  0  0  0  0  0  0
    0.5331   -7.6964   16.2751 C   0  0  0  0  0  0  0  0  0  0  0  0
   -0.6740  -10.8737   18.0482 C   0  0  0  0  0  0  0  0  0  0  0  0
    5.6751  -10.5870   29.7637 O   0  0  0  0  0  0  0  0  0  0  0  0
    1.7612   -5.6483   26.7172 C   0  0  0  0  0  0  0  0  0  0  0  0
    0.2221   -9.8326   17.4055 C   0  0  0  0  0  0  0  0  0  0  0  0
    4.3850   -9.0730   28.6745 C   0  0  0  0  0  0  0  0  0  0  0  0
  1  7  4  0
  1 22  4  0
  2 17  4  0
  2 20  4  0
  2 28  4  0
  3  6  1  0
  3 19  1  0
  4 19  1  0
  4 26  1  0
  5 17  4  0
  5 18  4  0
  6 20  1  0
  6 26  1  0
  7 24  4  0
  8 15  4  0
  8 24  4  0
  9 14  4  0
  9 21  4  0
 10 12  4  0
 10 27  4  0
 11 12  4  0
 11 23  4  0
 13 23  4  0
 13 27  4  0
 14 20  4  0
 15 22  4  0
 16 18  4  0
 16 25  2  0
 16 28  4  0
 21 28  4  0
 24 27  1  0
M  END
$$$$

 Created by Python create_sdf_string function

 28 31  0  0  0  0  0  0  0  0999 V2000
   -1.0054  -13.0622   19.1198 C   0  0  0  0  0  0  0  0  0  0  0  0
    3.1478   -8.5360   28.5161 C   0  0  0  0  0  0  0  0  0  0  0  0
    0.5798   -7.1906   27.9330 C   0  0  0  0  0  0  0  0  0  0  0  0
    0.3978   -5.1561   26.6955 C   0  0  0  0  0  0  0  0  0  0  0  0
    2.3063  -10.0533   30.0125 C   0  0  0  0  0  0  0  0  0  0  0  0
    1.8591   -6.8254   27.4685 N   0  0  0  0  0  0  0  0  0  0  0  0
   -0.2167  -12.1055   18.5568 C   0  0  0  0  0  0  0  0  0  0  0  0
   -2.0661  -10.6994   18.1916 C   0  0  0  0  0  0  0  0  0  0  0  0
    5.2703   -7.5691   27.1123 C   0  0  0  0  0  0  0  0  0  0  0  0
    1.6204   -9.9887   17.2935 C   0  0  0  0  0  0  0  0  0  0  0  0
    1.8931   -7.9265   16.2047 C   0  0  0  0  0  0  0  0  0  0  0  0
    2.4396   -9.0801   16.7132 C   0  0  0  0  0  0  0  0  0  0  0  0
   -0.2575   -8.6234   16.8582 C   0  0  0  0  0  0  0  0  0  0  0  0
    4.0614   -7.0367   27.0106 N   0  0  0  0  0  0  0  0  0  0  0  0
   -2.9133  -11.6279   18.7578 C   0  0  0  0  0  0  0  0  0  0  0  0
    4.5688  -10.1291   29.5758 C   0  0  0  0  0  0  0  0  0  0  0  0
    2.1008   -9.0410   29.1852 N   0  0  0  0  0  0  0  0  0  0  0  0
    3.4829  -10.5697   30.2091 N   0  0  0  0  0  0  0  0  0  0  0  0
   -0.3363   -6.1172   27.5628 C   0  0  0  0  0  0  0  0  0  0  0  0
    3.0331   -7.4400   27.6362 C   0  0  0  0  0  0  0  0  0  0  0  0
    5.4553   -8.5933   27.9644 C   0  0  0  0  0  0  0  0  0  0  0  0
   -2.3870  -12.8440   19.2512 C   0  0  0  0  0  0  0  0  0  0  0  0
    0.5331   -7.6964   16.2751 C   0  0  0  0  0  0  0  0  0  0  0  0
   -0.6740  -10.8737   18.0482 C   0  0  0  0  0  0  0  0  0  0  0  0
    5.6751  -10.5870   29.7637 O   0  0  0  0  0  0  0  0  0  0  0  0
    1.7612   -5.6483   26.7172 C   0  0  0  0  0  0  0  0  0  0  0  0
    0.2221   -9.8326   17.4055 C   0  0  0  0  0  0  0  0  0  0  0  0
    4.3850   -9.0730   28.6745 C   0  0  0  0  0  0  0  0  0  0  0  0
  1  7  4  0
  1 22  4  0
  2 17  4  0
  2 20  4  0
  2 28  4  0
  3  6  1  0
  3 19  1  0
  4 19  1  0
  4 26  1  0
  5 17  4  0
  5 18  4  0
  6 20  1  0
  6 26  1  0
  7 24  4  0
  8 15  4  0
  8 24  4  0
  9 14  4  0
  9 21  4  0
 10 12  4  0
 10 27  4  0
 11 12  4  0
 11 23  4  0
 13 23  4  0
 13 27  4  0
 14 20  4  0
 15 22  4  0
 16 18  4  0
 16 25  2  0
 16 28  4  0
 21 28  4  0
 24 27  1  0
M  END
$$$$

 Created by Python create_sdf_string function

 28 31  0  0  0  0  0  0  0  0999 V2000
   -1.0054  -13.0622   19.1198 C   0  0  0  0  0  0  0  0  0  0  0  0
    3.1478   -8.5360   28.5161 C   0  0  0  0  0  0  0  0  0  0  0  0
    0.5798   -7.1906   27.9330 C   0  0  0  0  0  0  0  0  0  0  0  0
    0.3978   -5.1561   26.6955 C   0  0  0  0  0  0  0  0  0  0  0  0
    2.3063  -10.0533   30.0125 C   0  0  0  0  0  0  0  0  0  0  0  0
    1.8591   -6.8254   27.4685 N   0  0  0  0  0  0  0  0  0  0  0  0
   -0.2167  -12.1055   18.5568 C   0  0  0  0  0  0  0  0  0  0  0  0
   -2.0661  -10.6994   18.1916 C   0  0  0  0  0  0  0  0  0  0  0  0
    5.2703   -7.5691   27.1123 C   0  0  0  0  0  0  0  0  0  0  0  0
    1.6204   -9.9887   17.2935 C   0  0  0  0  0  0  0  0  0  0  0  0
    1.8931   -7.9265   16.2047 C   0  0  0  0  0  0  0  0  0  0  0  0
    2.4396   -9.0801   16.7132 C   0  0  0  0  0  0  0  0  0  0  0  0
   -0.2575   -8.6234   16.8582 C   0  0  0  0  0  0  0  0  0  0  0  0
    4.0614   -7.0367   27.0106 N   0  0  0  0  0  0  0  0  0  0  0  0
   -2.9133  -11.6279   18.7578 C   0  0  0  0  0  0  0  0  0  0  0  0
    4.5688  -10.1291   29.5758 C   0  0  0  0  0  0  0  0  0  0  0  0
    2.1008   -9.0410   29.1852 N   0  0  0  0  0  0  0  0  0  0  0  0
    3.4829  -10.5697   30.2091 N   0  0  0  0  0  0  0  0  0  0  0  0
   -0.3363   -6.1172   27.5628 C   0  0  0  0  0  0  0  0  0  0  0  0
    3.0331   -7.4400   27.6362 C   0  0  0  0  0  0  0  0  0  0  0  0
    5.4553   -8.5933   27.9644 C   0  0  0  0  0  0  0  0  0  0  0  0
   -2.3870  -12.8440   19.2512 C   0  0  0  0  0  0  0  0  0  0  0  0
    0.5331   -7.6964   16.2751 C   0  0  0  0  0  0  0  0  0  0  0  0
   -0.6740  -10.8737   18.0482 C   0  0  0  0  0  0  0  0  0  0  0  0
    5.6751  -10.5870   29.7637 O   0  0  0  0  0  0  0  0  0  0  0  0
    1.7612   -5.6483   26.7172 C   0  0  0  0  0  0  0  0  0  0  0  0
    0.2221   -9.8326   17.4055 C   0  0  0  0  0  0  0  0  0  0  0  0
    4.3850   -9.0730   28.6745 C   0  0  0  0  0  0  0  0  0  0  0  0
  1  7  4  0
  1 22  4  0
  2 17  4  0
  2 20  4  0
  2 28  4  0
  3  6  1  0
  3 19  1  0
  4 19  1  0
  4 26  1  0
  5 17  4  0
  5 18  4  0
  6 20  1  0
  6 26  1  0
  7 24  4  0
  8 15  4  0
  8 24  4  0
  9 14  4  0
  9 21  4  0
 10 12  4  0
 10 27  4  0
 11 12  4  0
 11 23  4  0
 13 23  4  0
 13 27  4  0
 14 20  4  0
 15 22  4  0
 16 18  4  0
 16 25  2  0
 16 28  4  0
 21 28  4  0
 24 27  1  0
M  END
$$$$

 Created by Python create_sdf_string function

 28 31  0  0  0  0  0  0  0  0999 V2000
   -1.0054  -13.0622   19.1198 C   0  0  0  0  0  0  0  0  0  0  0  0
    3.1478   -8.5360   28.5161 C   0  0  0  0  0  0  0  0  0  0  0  0
    0.5798   -7.1906   27.9330 C   0  0  0  0  0  0  0  0  0  0  0  0
    0.3978   -5.1561   26.6955 C   0  0  0  0  0  0  0  0  0  0  0  0
    2.3063  -10.0533   30.0125 C   0  0  0  0  0  0  0  0  0  0  0  0
    1.8591   -6.8254   27.4685 N   0  0  0  0  0  0  0  0  0  0  0  0
   -0.2167  -12.1055   18.5568 C   0  0  0  0  0  0  0  0  0  0  0  0
   -2.0661  -10.6994   18.1916 C   0  0  0  0  0  0  0  0  0  0  0  0
    5.2703   -7.5691   27.1123 C   0  0  0  0  0  0  0  0  0  0  0  0
    1.6204   -9.9887   17.2935 C   0  0  0  0  0  0  0  0  0  0  0  0
    1.8931   -7.9265   16.2047 C   0  0  0  0  0  0  0  0  0  0  0  0
    2.4396   -9.0801   16.7132 C   0  0  0  0  0  0  0  0  0  0  0  0
   -0.2575   -8.6234   16.8582 C   0  0  0  0  0  0  0  0  0  0  0  0
    4.0614   -7.0367   27.0106 N   0  0  0  0  0  0  0  0  0  0  0  0
   -2.9133  -11.6279   18.7578 C   0  0  0  0  0  0  0  0  0  0  0  0
    4.5688  -10.1291   29.5758 C   0  0  0  0  0  0  0  0  0  0  0  0
    2.1008   -9.0410   29.1852 N   0  0  0  0  0  0  0  0  0  0  0  0
    3.4829  -10.5697   30.2091 N   0  0  0  0  0  0  0  0  0  0  0  0
   -0.3363   -6.1172   27.5628 C   0  0  0  0  0  0  0  0  0  0  0  0
    3.0331   -7.4400   27.6362 C   0  0  0  0  0  0  0  0  0  0  0  0
    5.4553   -8.5933   27.9644 C   0  0  0  0  0  0  0  0  0  0  0  0
   -2.3870  -12.8440   19.2512 C   0  0  0  0  0  0  0  0  0  0  0  0
    0.5331   -7.6964   16.2751 C   0  0  0  0  0  0  0  0  0  0  0  0
   -0.6740  -10.8737   18.0482 C   0  0  0  0  0  0  0  0  0  0  0  0
    5.6751  -10.5870   29.7637 O   0  0  0  0  0  0  0  0  0  0  0  0
    1.7612   -5.6483   26.7172 C   0  0  0  0  0  0  0  0  0  0  0  0
    0.2221   -9.8326   17.4055 C   0  0  0  0  0  0  0  0  0  0  0  0
    4.3850   -9.0730   28.6745 C   0  0  0  0  0  0  0  0  0  0  0  0
  1  7  4  0
  1 22  4  0
  2 17  4  0
  2 20  4  0
  2 28  4  0
  3  6  1  0
  3 19  1  0
  4 19  1  0
  4 26  1  0
  5 17  4  0
  5 18  4  0
  6 20  1  0
  6 26  1  0
  7 24  4  0
  8 15  4  0
  8 24  4  0
  9 14  4  0
  9 21  4  0
 10 12  4  0
 10 27  4  0
 11 12  4  0
 11 23  4  0
 13 23  4  0
 13 27  4  0
 14 20  4  0
 15 22  4  0
 16 18  4  0
 16 25  2  0
 16 28  4  0
 21 28  4  0
 24 27  1  0
M  END
$$$$

 Created by Python create_sdf_string function

 28 31  0  0  0  0  0  0  0  0999 V2000
   -1.0054  -13.0622   19.1198 C   0  0  0  0  0  0  0  0  0  0  0  0
    3.1478   -8.5360   28.5161 C   0  0  0  0  0  0  0  0  0  0  0  0
    0.5798   -7.1906   27.9330 C   0  0  0  0  0  0  0  0  0  0  0  0
    0.3978   -5.1561   26.6955 C   0  0  0  0  0  0  0  0  0  0  0  0
    2.3063  -10.0533   30.0125 C   0  0  0  0  0  0  0  0  0  0  0  0
    1.8591   -6.8254   27.4685 N   0  0  0  0  0  0  0  0  0  0  0  0
   -0.2167  -12.1055   18.5568 C   0  0  0  0  0  0  0  0  0  0  0  0
   -2.0661  -10.6994   18.1916 C   0  0  0  0  0  0  0  0  0  0  0  0
    5.2703   -7.5691   27.1123 C   0  0  0  0  0  0  0  0  0  0  0  0
    1.6204   -9.9887   17.2935 C   0  0  0  0  0  0  0  0  0  0  0  0
    1.8931   -7.9265   16.2047 C   0  0  0  0  0  0  0  0  0  0  0  0
    2.4396   -9.0801   16.7132 C   0  0  0  0  0  0  0  0  0  0  0  0
   -0.2575   -8.6234   16.8582 C   0  0  0  0  0  0  0  0  0  0  0  0
    4.0614   -7.0367   27.0106 N   0  0  0  0  0  0  0  0  0  0  0  0
   -2.9133  -11.6279   18.7578 C   0  0  0  0  0  0  0  0  0  0  0  0
    4.5688  -10.1291   29.5758 C   0  0  0  0  0  0  0  0  0  0  0  0
    2.1008   -9.0410   29.1852 N   0  0  0  0  0  0  0  0  0  0  0  0
    3.4829  -10.5697   30.2091 N   0  0  0  0  0  0  0  0  0  0  0  0
   -0.3363   -6.1172   27.5628 C   0  0  0  0  0  0  0  0  0  0  0  0
    3.0331   -7.4400   27.6362 C   0  0  0  0  0  0  0  0  0  0  0  0
    5.4553   -8.5933   27.9644 C   0  0  0  0  0  0  0  0  0  0  0  0
   -2.3870  -12.8440   19.2512 C   0  0  0  0  0  0  0  0  0  0  0  0
    0.5331   -7.6964   16.2751 C   0  0  0  0  0  0  0  0  0  0  0  0
   -0.6740  -10.8737   18.0482 C   0  0  0  0  0  0  0  0  0  0  0  0
    5.6751  -10.5870   29.7637 O   0  0  0  0  0  0  0  0  0  0  0  0
    1.7612   -5.6483   26.7172 C   0  0  0  0  0  0  0  0  0  0  0  0
    0.2221   -9.8326   17.4055 C   0  0  0  0  0  0  0  0  0  0  0  0
    4.3850   -9.0730   28.6745 C   0  0  0  0  0  0  0  0  0  0  0  0
  1  7  4  0
  1 22  4  0
  2 17  4  0
  2 20  4  0
  2 28  4  0
  3  6  1  0
  3 19  1  0
  4 19  1  0
  4 26  1  0
  5 17  4  0
  5 18  4  0
  6 20  1  0
  6 26  1  0
  7 24  4  0
  8 15  4  0
  8 24  4  0
  9 14  4  0
  9 21  4  0
 10 12  4  0
 10 27  4  0
 11 12  4  0
 11 23  4  0
 13 23  4  0
 13 27  4  0
 14 20  4  0
 15 22  4  0
 16 18  4  0
 16 25  2  0
 16 28  4  0
 21 28  4  0
 24 27  1  0
M  END
$$$$

 Created by Python create_sdf_string function

 28 31  0  0  0  0  0  0  0  0999 V2000
   -1.0054  -13.0622   19.1198 C   0  0  0  0  0  0  0  0  0  0  0  0
    3.1478   -8.5360   28.5161 C   0  0  0  0  0  0  0  0  0  0  0  0
    0.5798   -7.1906   27.9330 C   0  0  0  0  0  0  0  0  0  0  0  0
    0.3978   -5.1561   26.6955 C   0  0  0  0  0  0  0  0  0  0  0  0
    2.3063  -10.0533   30.0125 C   0  0  0  0  0  0  0  0  0  0  0  0
    1.8591   -6.8254   27.4685 N   0  0  0  0  0  0  0  0  0  0  0  0
   -0.2167  -12.1055   18.5568 C   0  0  0  0  0  0  0  0  0  0  0  0
   -2.0661  -10.6994   18.1916 C   0  0  0  0  0  0  0  0  0  0  0  0
    5.2703   -7.5691   27.1123 C   0  0  0  0  0  0  0  0  0  0  0  0
    1.6204   -9.9887   17.2935 C   0  0  0  0  0  0  0  0  0  0  0  0
    1.8931   -7.9265   16.2047 C   0  0  0  0  0  0  0  0  0  0  0  0
    2.4396   -9.0801   16.7132 C   0  0  0  0  0  0  0  0  0  0  0  0
   -0.2575   -8.6234   16.8582 C   0  0  0  0  0  0  0  0  0  0  0  0
    4.0614   -7.0367   27.0106 N   0  0  0  0  0  0  0  0  0  0  0  0
   -2.9133  -11.6279   18.7578 C   0  0  0  0  0  0  0  0  0  0  0  0
    4.5688  -10.1291   29.5758 C   0  0  0  0  0  0  0  0  0  0  0  0
    2.1008   -9.0410   29.1852 N   0  0  0  0  0  0  0  0  0  0  0  0
    3.4829  -10.5697   30.2091 N   0  0  0  0  0  0  0  0  0  0  0  0
   -0.3363   -6.1172   27.5628 C   0  0  0  0  0  0  0  0  0  0  0  0
    3.0331   -7.4400   27.6362 C   0  0  0  0  0  0  0  0  0  0  0  0
    5.4553   -8.5933   27.9644 C   0  0  0  0  0  0  0  0  0  0  0  0
   -2.3870  -12.8440   19.2512 C   0  0  0  0  0  0  0  0  0  0  0  0
    0.5331   -7.6964   16.2751 C   0  0  0  0  0  0  0  0  0  0  0  0
   -0.6740  -10.8737   18.0482 C   0  0  0  0  0  0  0  0  0  0  0  0
    5.6751  -10.5870   29.7637 O   0  0  0  0  0  0  0  0  0  0  0  0
    1.7612   -5.6483   26.7172 C   0  0  0  0  0  0  0  0  0  0  0  0
    0.2221   -9.8326   17.4055 C   0  0  0  0  0  0  0  0  0  0  0  0
    4.3850   -9.0730   28.6745 C   0  0  0  0  0  0  0  0  0  0  0  0
  1  7  4  0
  1 22  4  0
  2 17  4  0
  2 20  4  0
  2 28  4  0
  3  6  1  0
  3 19  1  0
  4 19  1  0
  4 26  1  0
  5 17  4  0
  5 18  4  0
  6 20  1  0
  6 26  1  0
  7 24  4  0
  8 15  4  0
  8 24  4  0
  9 14  4  0
  9 21  4  0
 10 12  4  0
 10 27  4  0
 11 12  4  0
 11 23  4  0
 13 23  4  0
 13 27  4  0
 14 20  4  0
 15 22  4  0
 16 18  4  0
 16 25  2  0
 16 28  4  0
 21 28  4  0
 24 27  1  0
M  END
$$$$

 Created by Python create_sdf_string function

 28 31  0  0  0  0  0  0  0  0999 V2000
   -1.0054  -13.0622   19.1198 C   0  0  0  0  0  0  0  0  0  0  0  0
    3.1478   -8.5360   28.5161 C   0  0  0  0  0  0  0  0  0  0  0  0
    0.5798   -7.1906   27.9330 C   0  0  0  0  0  0  0  0  0  0  0  0
    0.3978   -5.1561   26.6955 C   0  0  0  0  0  0  0  0  0  0  0  0
    2.3063  -10.0533   30.0125 C   0  0  0  0  0  0  0  0  0  0  0  0
    1.8591   -6.8254   27.4685 N   0  0  0  0  0  0  0  0  0  0  0  0
   -0.2167  -12.1055   18.5568 C   0  0  0  0  0  0  0  0  0  0  0  0
   -2.0661  -10.6994   18.1916 C   0  0  0  0  0  0  0  0  0  0  0  0
    5.2703   -7.5691   27.1123 C   0  0  0  0  0  0  0  0  0  0  0  0
    1.6204   -9.9887   17.2935 C   0  0  0  0  0  0  0  0  0  0  0  0
    1.8931   -7.9265   16.2047 C   0  0  0  0  0  0  0  0  0  0  0  0
    2.4396   -9.0801   16.7132 C   0  0  0  0  0  0  0  0  0  0  0  0
   -0.2575   -8.6234   16.8582 C   0  0  0  0  0  0  0  0  0  0  0  0
    4.0614   -7.0367   27.0106 N   0  0  0  0  0  0  0  0  0  0  0  0
   -2.9133  -11.6279   18.7578 C   0  0  0  0  0  0  0  0  0  0  0  0
    4.5688  -10.1291   29.5758 C   0  0  0  0  0  0  0  0  0  0  0  0
    2.1008   -9.0410   29.1852 N   0  0  0  0  0  0  0  0  0  0  0  0
    3.4829  -10.5697   30.2091 N   0  0  0  0  0  0  0  0  0  0  0  0
   -0.3363   -6.1172   27.5628 C   0  0  0  0  0  0  0  0  0  0  0  0
    3.0331   -7.4400   27.6362 C   0  0  0  0  0  0  0  0  0  0  0  0
    5.4553   -8.5933   27.9644 C   0  0  0  0  0  0  0  0  0  0  0  0
   -2.3870  -12.8440   19.2512 C   0  0  0  0  0  0  0  0  0  0  0  0
    0.5331   -7.6964   16.2751 C   0  0  0  0  0  0  0  0  0  0  0  0
   -0.6740  -10.8737   18.0482 C   0  0  0  0  0  0  0  0  0  0  0  0
    5.6751  -10.5870   29.7637 O   0  0  0  0  0  0  0  0  0  0  0  0
    1.7612   -5.6483   26.7172 C   0  0  0  0  0  0  0  0  0  0  0  0
    0.2221   -9.8326   17.4055 C   0  0  0  0  0  0  0  0  0  0  0  0
    4.3850   -9.0730   28.6745 C   0  0  0  0  0  0  0  0  0  0  0  0
  1  7  4  0
  1 22  4  0
  2 17  4  0
  2 20  4  0
  2 28  4  0
  3  6  1  0
  3 19  1  0
  4 19  1  0
  4 26  1  0
  5 17  4  0
  5 18  4  0
  6 20  1  0
  6 26  1  0
  7 24  4  0
  8 15  4  0
  8 24  4  0
  9 14  4  0
  9 21  4  0
 10 12  4  0
 10 27  4  0
 11 12  4  0
 11 23  4  0
 13 23  4  0
 13 27  4  0
 14 20  4  0
 15 22  4  0
 16 18  4  0
 16 25  2  0
 16 28  4  0
 21 28  4  0
 24 27  1  0
M  END
$$$$

 Created by Python create_sdf_string function

 28 31  0  0  0  0  0  0  0  0999 V2000
   -1.0054  -13.0622   19.1198 C   0  0  0  0  0  0  0  0  0  0  0  0
    3.1478   -8.5360   28.5161 C   0  0  0  0  0  0  0  0  0  0  0  0
    0.5798   -7.1906   27.9330 C   0  0  0  0  0  0  0  0  0  0  0  0
    0.3978   -5.1561   26.6955 C   0  0  0  0  0  0  0  0  0  0  0  0
    2.3063  -10.0533   30.0125 C   0  0  0  0  0  0  0  0  0  0  0  0
    1.8591   -6.8254   27.4685 N   0  0  0  0  0  0  0  0  0  0  0  0
   -0.2167  -12.1055   18.5568 C   0  0  0  0  0  0  0  0  0  0  0  0
   -2.0661  -10.6994   18.1916 C   0  0  0  0  0  0  0  0  0  0  0  0
    5.2703   -7.5691   27.1123 C   0  0  0  0  0  0  0  0  0  0  0  0
    1.6204   -9.9887   17.2935 C   0  0  0  0  0  0  0  0  0  0  0  0
    1.8931   -7.9265   16.2047 C   0  0  0  0  0  0  0  0  0  0  0  0
    2.4396   -9.0801   16.7132 C   0  0  0  0  0  0  0  0  0  0  0  0
   -0.2575   -8.6234   16.8582 C   0  0  0  0  0  0  0  0  0  0  0  0
    4.0614   -7.0367   27.0106 N   0  0  0  0  0  0  0  0  0  0  0  0
   -2.9133  -11.6279   18.7578 C   0  0  0  0  0  0  0  0  0  0  0  0
    4.5688  -10.1291   29.5758 C   0  0  0  0  0  0  0  0  0  0  0  0
    2.1008   -9.0410   29.1852 N   0  0  0  0  0  0  0  0  0  0  0  0
    3.4829  -10.5697   30.2091 N   0  0  0  0  0  0  0  0  0  0  0  0
   -0.3363   -6.1172   27.5628 C   0  0  0  0  0  0  0  0  0  0  0  0
    3.0331   -7.4400   27.6362 C   0  0  0  0  0  0  0  0  0  0  0  0
    5.4553   -8.5933   27.9644 C   0  0  0  0  0  0  0  0  0  0  0  0
   -2.3870  -12.8440   19.2512 C   0  0  0  0  0  0  0  0  0  0  0  0
    0.5331   -7.6964   16.2751 C   0  0  0  0  0  0  0  0  0  0  0  0
   -0.6740  -10.8737   18.0482 C   0  0  0  0  0  0  0  0  0  0  0  0
    5.6751  -10.5870   29.7637 O   0  0  0  0  0  0  0  0  0  0  0  0
    1.7612   -5.6483   26.7172 C   0  0  0  0  0  0  0  0  0  0  0  0
    0.2221   -9.8326   17.4055 C   0  0  0  0  0  0  0  0  0  0  0  0
    4.3850   -9.0730   28.6745 C   0  0  0  0  0  0  0  0  0  0  0  0
  1  7  4  0
  1 22  4  0
  2 17  4  0
  2 20  4  0
  2 28  4  0
  3  6  1  0
  3 19  1  0
  4 19  1  0
  4 26  1  0
  5 17  4  0
  5 18  4  0
  6 20  1  0
  6 26  1  0
  7 24  4  0
  8 15  4  0
  8 24  4  0
  9 14  4  0
  9 21  4  0
 10 12  4  0
 10 27  4  0
 11 12  4  0
 11 23  4  0
 13 23  4  0
 13 27  4  0
 14 20  4  0
 15 22  4  0
 16 18  4  0
 16 25  2  0
 16 28  4  0
 21 28  4  0
 24 27  1  0
M  END
$$$$

 Created by Python create_sdf_string function

 28 31  0  0  0  0  0  0  0  0999 V2000
   -1.0054  -13.0622   19.1198 C   0  0  0  0  0  0  0  0  0  0  0  0
    3.1478   -8.5360   28.5161 C   0  0  0  0  0  0  0  0  0  0  0  0
    0.5798   -7.1906   27.9330 C   0  0  0  0  0  0  0  0  0  0  0  0
    0.3978   -5.1561   26.6955 C   0  0  0  0  0  0  0  0  0  0  0  0
    2.3063  -10.0533   30.0125 C   0  0  0  0  0  0  0  0  0  0  0  0
    1.8591   -6.8254   27.4685 N   0  0  0  0  0  0  0  0  0  0  0  0
   -0.2167  -12.1055   18.5568 C   0  0  0  0  0  0  0  0  0  0  0  0
   -2.0661  -10.6994   18.1916 C   0  0  0  0  0  0  0  0  0  0  0  0
    5.2703   -7.5691   27.1123 C   0  0  0  0  0  0  0  0  0  0  0  0
    1.6204   -9.9887   17.2935 C   0  0  0  0  0  0  0  0  0  0  0  0
    1.8931   -7.9265   16.2047 C   0  0  0  0  0  0  0  0  0  0  0  0
    2.4396   -9.0801   16.7132 C   0  0  0  0  0  0  0  0  0  0  0  0
   -0.2575   -8.6234   16.8582 C   0  0  0  0  0  0  0  0  0  0  0  0
    4.0614   -7.0367   27.0106 N   0  0  0  0  0  0  0  0  0  0  0  0
   -2.9133  -11.6279   18.7578 C   0  0  0  0  0  0  0  0  0  0  0  0
    4.5688  -10.1291   29.5758 C   0  0  0  0  0  0  0  0  0  0  0  0
    2.1008   -9.0410   29.1852 N   0  0  0  0  0  0  0  0  0  0  0  0
    3.4829  -10.5697   30.2091 N   0  0  0  0  0  0  0  0  0  0  0  0
   -0.3363   -6.1172   27.5628 C   0  0  0  0  0  0  0  0  0  0  0  0
    3.0331   -7.4400   27.6362 C   0  0  0  0  0  0  0  0  0  0  0  0
    5.4553   -8.5933   27.9644 C   0  0  0  0  0  0  0  0  0  0  0  0
   -2.3870  -12.8440   19.2512 C   0  0  0  0  0  0  0  0  0  0  0  0
    0.5331   -7.6964   16.2751 C   0  0  0  0  0  0  0  0  0  0  0  0
   -0.6740  -10.8737   18.0482 C   0  0  0  0  0  0  0  0  0  0  0  0
    5.6751  -10.5870   29.7637 O   0  0  0  0  0  0  0  0  0  0  0  0
    1.7612   -5.6483   26.7172 C   0  0  0  0  0  0  0  0  0  0  0  0
    0.2221   -9.8326   17.4055 C   0  0  0  0  0  0  0  0  0  0  0  0
    4.3850   -9.0730   28.6745 C   0  0  0  0  0  0  0  0  0  0  0  0
  1  7  4  0
  1 22  4  0
  2 17  4  0
  2 20  4  0
  2 28  4  0
  3  6  1  0
  3 19  1  0
  4 19  1  0
  4 26  1  0
  5 17  4  0
  5 18  4  0
  6 20  1  0
  6 26  1  0
  7 24  4  0
  8 15  4  0
  8 24  4  0
  9 14  4  0
  9 21  4  0
 10 12  4  0
 10 27  4  0
 11 12  4  0
 11 23  4  0
 13 23  4  0
 13 27  4  0
 14 20  4  0
 15 22  4  0
 16 18  4  0
 16 25  2  0
 16 28  4  0
 21 28  4  0
 24 27  1  0
M  END
$$$$

 Created by Python create_sdf_string function

 28 31  0  0  0  0  0  0  0  0999 V2000
   -1.0054  -13.0622   19.1198 C   0  0  0  0  0  0  0  0  0  0  0  0
    3.1478   -8.5360   28.5161 C   0  0  0  0  0  0  0  0  0  0  0  0
    0.5798   -7.1906   27.9330 C   0  0  0  0  0  0  0  0  0  0  0  0
    0.3978   -5.1561   26.6955 C   0  0  0  0  0  0  0  0  0  0  0  0
    2.3063  -10.0533   30.0125 C   0  0  0  0  0  0  0  0  0  0  0  0
    1.8591   -6.8254   27.4685 N   0  0  0  0  0  0  0  0  0  0  0  0
   -0.2167  -12.1055   18.5568 C   0  0  0  0  0  0  0  0  0  0  0  0
   -2.0661  -10.6994   18.1916 C   0  0  0  0  0  0  0  0  0  0  0  0
    5.2703   -7.5691   27.1123 C   0  0  0  0  0  0  0  0  0  0  0  0
    1.6204   -9.9887   17.2935 C   0  0  0  0  0  0  0  0  0  0  0  0
    1.8931   -7.9265   16.2047 C   0  0  0  0  0  0  0  0  0  0  0  0
    2.4396   -9.0801   16.7132 C   0  0  0  0  0  0  0  0  0  0  0  0
   -0.2575   -8.6234   16.8582 C   0  0  0  0  0  0  0  0  0  0  0  0
    4.0614   -7.0367   27.0106 N   0  0  0  0  0  0  0  0  0  0  0  0
   -2.9133  -11.6279   18.7578 C   0  0  0  0  0  0  0  0  0  0  0  0
    4.5688  -10.1291   29.5758 C   0  0  0  0  0  0  0  0  0  0  0  0
    2.1008   -9.0410   29.1852 N   0  0  0  0  0  0  0  0  0  0  0  0
    3.4829  -10.5697   30.2091 N   0  0  0  0  0  0  0  0  0  0  0  0
   -0.3363   -6.1172   27.5628 C   0  0  0  0  0  0  0  0  0  0  0  0
    3.0331   -7.4400   27.6362 C   0  0  0  0  0  0  0  0  0  0  0  0
    5.4553   -8.5933   27.9644 C   0  0  0  0  0  0  0  0  0  0  0  0
   -2.3870  -12.8440   19.2512 C   0  0  0  0  0  0  0  0  0  0  0  0
    0.5331   -7.6964   16.2751 C   0  0  0  0  0  0  0  0  0  0  0  0
   -0.6740  -10.8737   18.0482 C   0  0  0  0  0  0  0  0  0  0  0  0
    5.6751  -10.5870   29.7637 O   0  0  0  0  0  0  0  0  0  0  0  0
    1.7612   -5.6483   26.7172 C   0  0  0  0  0  0  0  0  0  0  0  0
    0.2221   -9.8326   17.4055 C   0  0  0  0  0  0  0  0  0  0  0  0
    4.3850   -9.0730   28.6745 C   0  0  0  0  0  0  0  0  0  0  0  0
  1  7  4  0
  1 22  4  0
  2 17  4  0
  2 20  4  0
  2 28  4  0
  3  6  1  0
  3 19  1  0
  4 19  1  0
  4 26  1  0
  5 17  4  0
  5 18  4  0
  6 20  1  0
  6 26  1  0
  7 24  4  0
  8 15  4  0
  8 24  4  0
  9 14  4  0
  9 21  4  0
 10 12  4  0
 10 27  4  0
 11 12  4  0
 11 23  4  0
 13 23  4  0
 13 27  4  0
 14 20  4  0
 15 22  4  0
 16 18  4  0
 16 25  2  0
 16 28  4  0
 21 28  4  0
 24 27  1  0
M  END
$$$$

 Created by Python create_sdf_string function

 28 31  0  0  0  0  0  0  0  0999 V2000
   -1.0054  -13.0622   19.1198 C   0  0  0  0  0  0  0  0  0  0  0  0
    3.1478   -8.5360   28.5161 C   0  0  0  0  0  0  0  0  0  0  0  0
    0.5798   -7.1906   27.9330 C   0  0  0  0  0  0  0  0  0  0  0  0
    0.3978   -5.1561   26.6955 C   0  0  0  0  0  0  0  0  0  0  0  0
    2.3063  -10.0533   30.0125 C   0  0  0  0  0  0  0  0  0  0  0  0
    1.8591   -6.8254   27.4685 N   0  0  0  0  0  0  0  0  0  0  0  0
   -0.2167  -12.1055   18.5568 C   0  0  0  0  0  0  0  0  0  0  0  0
   -2.0661  -10.6994   18.1916 C   0  0  0  0  0  0  0  0  0  0  0  0
    5.2703   -7.5691   27.1123 C   0  0  0  0  0  0  0  0  0  0  0  0
    1.6204   -9.9887   17.2935 C   0  0  0  0  0  0  0  0  0  0  0  0
    1.8931   -7.9265   16.2047 C   0  0  0  0  0  0  0  0  0  0  0  0
    2.4396   -9.0801   16.7132 C   0  0  0  0  0  0  0  0  0  0  0  0
   -0.2575   -8.6234   16.8582 C   0  0  0  0  0  0  0  0  0  0  0  0
    4.0614   -7.0367   27.0106 N   0  0  0  0  0  0  0  0  0  0  0  0
   -2.9133  -11.6279   18.7578 C   0  0  0  0  0  0  0  0  0  0  0  0
    4.5688  -10.1291   29.5758 C   0  0  0  0  0  0  0  0  0  0  0  0
    2.1008   -9.0410   29.1852 N   0  0  0  0  0  0  0  0  0  0  0  0
    3.4829  -10.5697   30.2091 N   0  0  0  0  0  0  0  0  0  0  0  0
   -0.3363   -6.1172   27.5628 C   0  0  0  0  0  0  0  0  0  0  0  0
    3.0331   -7.4400   27.6362 C   0  0  0  0  0  0  0  0  0  0  0  0
    5.4553   -8.5933   27.9644 C   0  0  0  0  0  0  0  0  0  0  0  0
   -2.3870  -12.8440   19.2512 C   0  0  0  0  0  0  0  0  0  0  0  0
    0.5331   -7.6964   16.2751 C   0  0  0  0  0  0  0  0  0  0  0  0
   -0.6740  -10.8737   18.0482 C   0  0  0  0  0  0  0  0  0  0  0  0
    5.6751  -10.5870   29.7637 O   0  0  0  0  0  0  0  0  0  0  0  0
    1.7612   -5.6483   26.7172 C   0  0  0  0  0  0  0  0  0  0  0  0
    0.2221   -9.8326   17.4055 C   0  0  0  0  0  0  0  0  0  0  0  0
    4.3850   -9.0730   28.6745 C   0  0  0  0  0  0  0  0  0  0  0  0
  1  7  4  0
  1 22  4  0
  2 17  4  0
  2 20  4  0
  2 28  4  0
  3  6  1  0
  3 19  1  0
  4 19  1  0
  4 26  1  0
  5 17  4  0
  5 18  4  0
  6 20  1  0
  6 26  1  0
  7 24  4  0
  8 15  4  0
  8 24  4  0
  9 14  4  0
  9 21  4  0
 10 12  4  0
 10 27  4  0
 11 12  4  0
 11 23  4  0
 13 23  4  0
 13 27  4  0
 14 20  4  0
 15 22  4  0
 16 18  4  0
 16 25  2  0
 16 28  4  0
 21 28  4  0
 24 27  1  0
M  END
$$$$

 Created by Python create_sdf_string function

 28 31  0  0  0  0  0  0  0  0999 V2000
   -1.0054  -13.0622   19.1198 C   0  0  0  0  0  0  0  0  0  0  0  0
    3.1478   -8.5360   28.5161 C   0  0  0  0  0  0  0  0  0  0  0  0
    0.5798   -7.1906   27.9330 C   0  0  0  0  0  0  0  0  0  0  0  0
    0.3978   -5.1561   26.6955 C   0  0  0  0  0  0  0  0  0  0  0  0
    2.3063  -10.0533   30.0125 C   0  0  0  0  0  0  0  0  0  0  0  0
    1.8591   -6.8254   27.4685 N   0  0  0  0  0  0  0  0  0  0  0  0
   -0.2167  -12.1055   18.5568 C   0  0  0  0  0  0  0  0  0  0  0  0
   -2.0661  -10.6994   18.1916 C   0  0  0  0  0  0  0  0  0  0  0  0
    5.2703   -7.5691   27.1123 C   0  0  0  0  0  0  0  0  0  0  0  0
    1.6204   -9.9887   17.2935 C   0  0  0  0  0  0  0  0  0  0  0  0
    1.8931   -7.9265   16.2047 C   0  0  0  0  0  0  0  0  0  0  0  0
    2.4396   -9.0801   16.7132 C   0  0  0  0  0  0  0  0  0  0  0  0
   -0.2575   -8.6234   16.8582 C   0  0  0  0  0  0  0  0  0  0  0  0
    4.0614   -7.0367   27.0106 N   0  0  0  0  0  0  0  0  0  0  0  0
   -2.9133  -11.6279   18.7578 C   0  0  0  0  0  0  0  0  0  0  0  0
    4.5688  -10.1291   29.5758 C   0  0  0  0  0  0  0  0  0  0  0  0
    2.1008   -9.0410   29.1852 N   0  0  0  0  0  0  0  0  0  0  0  0
    3.4829  -10.5697   30.2091 N   0  0  0  0  0  0  0  0  0  0  0  0
   -0.3363   -6.1172   27.5628 C   0  0  0  0  0  0  0  0  0  0  0  0
    3.0331   -7.4400   27.6362 C   0  0  0  0  0  0  0  0  0  0  0  0
    5.4553   -8.5933   27.9644 C   0  0  0  0  0  0  0  0  0  0  0  0
   -2.3870  -12.8440   19.2512 C   0  0  0  0  0  0  0  0  0  0  0  0
    0.5331   -7.6964   16.2751 C   0  0  0  0  0  0  0  0  0  0  0  0
   -0.6740  -10.8737   18.0482 C   0  0  0  0  0  0  0  0  0  0  0  0
    5.6751  -10.5870   29.7637 O   0  0  0  0  0  0  0  0  0  0  0  0
    1.7612   -5.6483   26.7172 C   0  0  0  0  0  0  0  0  0  0  0  0
    0.2221   -9.8326   17.4055 C   0  0  0  0  0  0  0  0  0  0  0  0
    4.3850   -9.0730   28.6745 C   0  0  0  0  0  0  0  0  0  0  0  0
  1  7  4  0
  1 22  4  0
  2 17  4  0
  2 20  4  0
  2 28  4  0
  3  6  1  0
  3 19  1  0
  4 19  1  0
  4 26  1  0
  5 17  4  0
  5 18  4  0
  6 20  1  0
  6 26  1  0
  7 24  4  0
  8 15  4  0
  8 24  4  0
  9 14  4  0
  9 21  4  0
 10 12  4  0
 10 27  4  0
 11 12  4  0
 11 23  4  0
 13 23  4  0
 13 27  4  0
 14 20  4  0
 15 22  4  0
 16 18  4  0
 16 25  2  0
 16 28  4  0
 21 28  4  0
 24 27  1  0
M  END
$$$$

 Created by Python create_sdf_string function

 28 31  0  0  0  0  0  0  0  0999 V2000
   -1.0054  -13.0622   19.1198 C   0  0  0  0  0  0  0  0  0  0  0  0
    3.1478   -8.5360   28.5161 C   0  0  0  0  0  0  0  0  0  0  0  0
    0.5798   -7.1906   27.9330 C   0  0  0  0  0  0  0  0  0  0  0  0
    0.3978   -5.1561   26.6955 C   0  0  0  0  0  0  0  0  0  0  0  0
    2.3063  -10.0533   30.0125 C   0  0  0  0  0  0  0  0  0  0  0  0
    1.8591   -6.8254   27.4685 N   0  0  0  0  0  0  0  0  0  0  0  0
   -0.2167  -12.1055   18.5568 C   0  0  0  0  0  0  0  0  0  0  0  0
   -2.0661  -10.6994   18.1916 C   0  0  0  0  0  0  0  0  0  0  0  0
    5.2703   -7.5691   27.1123 C   0  0  0  0  0  0  0  0  0  0  0  0
    1.6204   -9.9887   17.2935 C   0  0  0  0  0  0  0  0  0  0  0  0
    1.8931   -7.9265   16.2047 C   0  0  0  0  0  0  0  0  0  0  0  0
    2.4396   -9.0801   16.7132 C   0  0  0  0  0  0  0  0  0  0  0  0
   -0.2575   -8.6234   16.8582 C   0  0  0  0  0  0  0  0  0  0  0  0
    4.0614   -7.0367   27.0106 N   0  0  0  0  0  0  0  0  0  0  0  0
   -2.9133  -11.6279   18.7578 C   0  0  0  0  0  0  0  0  0  0  0  0
    4.5688  -10.1291   29.5758 C   0  0  0  0  0  0  0  0  0  0  0  0
    2.1008   -9.0410   29.1852 N   0  0  0  0  0  0  0  0  0  0  0  0
    3.4829  -10.5697   30.2091 N   0  0  0  0  0  0  0  0  0  0  0  0
   -0.3363   -6.1172   27.5628 C   0  0  0  0  0  0  0  0  0  0  0  0
    3.0331   -7.4400   27.6362 C   0  0  0  0  0  0  0  0  0  0  0  0
    5.4553   -8.5933   27.9644 C   0  0  0  0  0  0  0  0  0  0  0  0
   -2.3870  -12.8440   19.2512 C   0  0  0  0  0  0  0  0  0  0  0  0
    0.5331   -7.6964   16.2751 C   0  0  0  0  0  0  0  0  0  0  0  0
   -0.6740  -10.8737   18.0482 C   0  0  0  0  0  0  0  0  0  0  0  0
    5.6751  -10.5870   29.7637 O   0  0  0  0  0  0  0  0  0  0  0  0
    1.7612   -5.6483   26.7172 C   0  0  0  0  0  0  0  0  0  0  0  0
    0.2221   -9.8326   17.4055 C   0  0  0  0  0  0  0  0  0  0  0  0
    4.3850   -9.0730   28.6745 C   0  0  0  0  0  0  0  0  0  0  0  0
  1  7  4  0
  1 22  4  0
  2 17  4  0
  2 20  4  0
  2 28  4  0
  3  6  1  0
  3 19  1  0
  4 19  1  0
  4 26  1  0
  5 17  4  0
  5 18  4  0
  6 20  1  0
  6 26  1  0
  7 24  4  0
  8 15  4  0
  8 24  4  0
  9 14  4  0
  9 21  4  0
 10 12  4  0
 10 27  4  0
 11 12  4  0
 11 23  4  0
 13 23  4  0
 13 27  4  0
 14 20  4  0
 15 22  4  0
 16 18  4  0
 16 25  2  0
 16 28  4  0
 21 28  4  0
 24 27  1  0
M  END
$$$$

 Created by Python create_sdf_string function

 28 31  0  0  0  0  0  0  0  0999 V2000
   -1.0054  -13.0622   19.1198 C   0  0  0  0  0  0  0  0  0  0  0  0
    3.1478   -8.5360   28.5161 C   0  0  0  0  0  0  0  0  0  0  0  0
    0.5798   -7.1906   27.9330 C   0  0  0  0  0  0  0  0  0  0  0  0
    0.3978   -5.1561   26.6955 C   0  0  0  0  0  0  0  0  0  0  0  0
    2.3063  -10.0533   30.0125 C   0  0  0  0  0  0  0  0  0  0  0  0
    1.8591   -6.8254   27.4685 N   0  0  0  0  0  0  0  0  0  0  0  0
   -0.2167  -12.1055   18.5568 C   0  0  0  0  0  0  0  0  0  0  0  0
   -2.0661  -10.6994   18.1916 C   0  0  0  0  0  0  0  0  0  0  0  0
    5.2703   -7.5691   27.1123 C   0  0  0  0  0  0  0  0  0  0  0  0
    1.6204   -9.9887   17.2935 C   0  0  0  0  0  0  0  0  0  0  0  0
    1.8931   -7.9265   16.2047 C   0  0  0  0  0  0  0  0  0  0  0  0
    2.4396   -9.0801   16.7132 C   0  0  0  0  0  0  0  0  0  0  0  0
   -0.2575   -8.6234   16.8582 C   0  0  0  0  0  0  0  0  0  0  0  0
    4.0614   -7.0367   27.0106 N   0  0  0  0  0  0  0  0  0  0  0  0
   -2.9133  -11.6279   18.7578 C   0  0  0  0  0  0  0  0  0  0  0  0
    4.5688  -10.1291   29.5758 C   0  0  0  0  0  0  0  0  0  0  0  0
    2.1008   -9.0410   29.1852 N   0  0  0  0  0  0  0  0  0  0  0  0
    3.4829  -10.5697   30.2091 N   0  0  0  0  0  0  0  0  0  0  0  0
   -0.3363   -6.1172   27.5628 C   0  0  0  0  0  0  0  0  0  0  0  0
    3.0331   -7.4400   27.6362 C   0  0  0  0  0  0  0  0  0  0  0  0
    5.4553   -8.5933   27.9644 C   0  0  0  0  0  0  0  0  0  0  0  0
   -2.3870  -12.8440   19.2512 C   0  0  0  0  0  0  0  0  0  0  0  0
    0.5331   -7.6964   16.2751 C   0  0  0  0  0  0  0  0  0  0  0  0
   -0.6740  -10.8737   18.0482 C   0  0  0  0  0  0  0  0  0  0  0  0
    5.6751  -10.5870   29.7637 O   0  0  0  0  0  0  0  0  0  0  0  0
    1.7612   -5.6483   26.7172 C   0  0  0  0  0  0  0  0  0  0  0  0
    0.2221   -9.8326   17.4055 C   0  0  0  0  0  0  0  0  0  0  0  0
    4.3850   -9.0730   28.6745 C   0  0  0  0  0  0  0  0  0  0  0  0
  1  7  4  0
  1 22  4  0
  2 17  4  0
  2 20  4  0
  2 28  4  0
  3  6  1  0
  3 19  1  0
  4 19  1  0
  4 26  1  0
  5 17  4  0
  5 18  4  0
  6 20  1  0
  6 26  1  0
  7 24  4  0
  8 15  4  0
  8 24  4  0
  9 14  4  0
  9 21  4  0
 10 12  4  0
 10 27  4  0
 11 12  4  0
 11 23  4  0
 13 23  4  0
 13 27  4  0
 14 20  4  0
 15 22  4  0
 16 18  4  0
 16 25  2  0
 16 28  4  0
 21 28  4  0
 24 27  1  0
M  END
$$$$

 Created by Python create_sdf_string function

 28 31  0  0  0  0  0  0  0  0999 V2000
   -1.0054  -13.0622   19.1198 C   0  0  0  0  0  0  0  0  0  0  0  0
    3.1478   -8.5360   28.5161 C   0  0  0  0  0  0  0  0  0  0  0  0
    0.5798   -7.1906   27.9330 C   0  0  0  0  0  0  0  0  0  0  0  0
    0.3978   -5.1561   26.6955 C   0  0  0  0  0  0  0  0  0  0  0  0
    2.3063  -10.0533   30.0125 C   0  0  0  0  0  0  0  0  0  0  0  0
    1.8591   -6.8254   27.4685 N   0  0  0  0  0  0  0  0  0  0  0  0
   -0.2167  -12.1055   18.5568 C   0  0  0  0  0  0  0  0  0  0  0  0
   -2.0661  -10.6994   18.1916 C   0  0  0  0  0  0  0  0  0  0  0  0
    5.2703   -7.5691   27.1123 C   0  0  0  0  0  0  0  0  0  0  0  0
    1.6204   -9.9887   17.2935 C   0  0  0  0  0  0  0  0  0  0  0  0
    1.8931   -7.9265   16.2047 C   0  0  0  0  0  0  0  0  0  0  0  0
    2.4396   -9.0801   16.7132 C   0  0  0  0  0  0  0  0  0  0  0  0
   -0.2575   -8.6234   16.8582 C   0  0  0  0  0  0  0  0  0  0  0  0
    4.0614   -7.0367   27.0106 N   0  0  0  0  0  0  0  0  0  0  0  0
   -2.9133  -11.6279   18.7578 C   0  0  0  0  0  0  0  0  0  0  0  0
    4.5688  -10.1291   29.5758 C   0  0  0  0  0  0  0  0  0  0  0  0
    2.1008   -9.0410   29.1852 N   0  0  0  0  0  0  0  0  0  0  0  0
    3.4829  -10.5697   30.2091 N   0  0  0  0  0  0  0  0  0  0  0  0
   -0.3363   -6.1172   27.5628 C   0  0  0  0  0  0  0  0  0  0  0  0
    3.0331   -7.4400   27.6362 C   0  0  0  0  0  0  0  0  0  0  0  0
    5.4553   -8.5933   27.9644 C   0  0  0  0  0  0  0  0  0  0  0  0
   -2.3870  -12.8440   19.2512 C   0  0  0  0  0  0  0  0  0  0  0  0
    0.5331   -7.6964   16.2751 C   0  0  0  0  0  0  0  0  0  0  0  0
   -0.6740  -10.8737   18.0482 C   0  0  0  0  0  0  0  0  0  0  0  0
    5.6751  -10.5870   29.7637 O   0  0  0  0  0  0  0  0  0  0  0  0
    1.7612   -5.6483   26.7172 C   0  0  0  0  0  0  0  0  0  0  0  0
    0.2221   -9.8326   17.4055 C   0  0  0  0  0  0  0  0  0  0  0  0
    4.3850   -9.0730   28.6745 C   0  0  0  0  0  0  0  0  0  0  0  0
  1  7  4  0
  1 22  4  0
  2 17  4  0
  2 20  4  0
  2 28  4  0
  3  6  1  0
  3 19  1  0
  4 19  1  0
  4 26  1  0
  5 17  4  0
  5 18  4  0
  6 20  1  0
  6 26  1  0
  7 24  4  0
  8 15  4  0
  8 24  4  0
  9 14  4  0
  9 21  4  0
 10 12  4  0
 10 27  4  0
 11 12  4  0
 11 23  4  0
 13 23  4  0
 13 27  4  0
 14 20  4  0
 15 22  4  0
 16 18  4  0
 16 25  2  0
 16 28  4  0
 21 28  4  0
 24 27  1  0
M  END
$$$$

 Created by Python create_sdf_string function

 28 31  0  0  0  0  0  0  0  0999 V2000
   -1.0054  -13.0622   19.1198 C   0  0  0  0  0  0  0  0  0  0  0  0
    3.1478   -8.5360   28.5161 C   0  0  0  0  0  0  0  0  0  0  0  0
    0.5798   -7.1906   27.9330 C   0  0  0  0  0  0  0  0  0  0  0  0
    0.3978   -5.1561   26.6955 C   0  0  0  0  0  0  0  0  0  0  0  0
    2.3063  -10.0533   30.0125 C   0  0  0  0  0  0  0  0  0  0  0  0
    1.8591   -6.8254   27.4685 N   0  0  0  0  0  0  0  0  0  0  0  0
   -0.2167  -12.1055   18.5568 C   0  0  0  0  0  0  0  0  0  0  0  0
   -2.0661  -10.6994   18.1916 C   0  0  0  0  0  0  0  0  0  0  0  0
    5.2703   -7.5691   27.1123 C   0  0  0  0  0  0  0  0  0  0  0  0
    1.6204   -9.9887   17.2935 C   0  0  0  0  0  0  0  0  0  0  0  0
    1.8931   -7.9265   16.2047 C   0  0  0  0  0  0  0  0  0  0  0  0
    2.4396   -9.0801   16.7132 C   0  0  0  0  0  0  0  0  0  0  0  0
   -0.2575   -8.6234   16.8582 C   0  0  0  0  0  0  0  0  0  0  0  0
    4.0614   -7.0367   27.0106 N   0  0  0  0  0  0  0  0  0  0  0  0
   -2.9133  -11.6279   18.7578 C   0  0  0  0  0  0  0  0  0  0  0  0
    4.5688  -10.1291   29.5758 C   0  0  0  0  0  0  0  0  0  0  0  0
    2.1008   -9.0410   29.1852 N   0  0  0  0  0  0  0  0  0  0  0  0
    3.4829  -10.5697   30.2091 N   0  0  0  0  0  0  0  0  0  0  0  0
   -0.3363   -6.1172   27.5628 C   0  0  0  0  0  0  0  0  0  0  0  0
    3.0331   -7.4400   27.6362 C   0  0  0  0  0  0  0  0  0  0  0  0
    5.4553   -8.5933   27.9644 C   0  0  0  0  0  0  0  0  0  0  0  0
   -2.3870  -12.8440   19.2512 C   0  0  0  0  0  0  0  0  0  0  0  0
    0.5331   -7.6964   16.2751 C   0  0  0  0  0  0  0  0  0  0  0  0
   -0.6740  -10.8737   18.0482 C   0  0  0  0  0  0  0  0  0  0  0  0
    5.6751  -10.5870   29.7637 O   0  0  0  0  0  0  0  0  0  0  0  0
    1.7612   -5.6483   26.7172 C   0  0  0  0  0  0  0  0  0  0  0  0
    0.2221   -9.8326   17.4055 C   0  0  0  0  0  0  0  0  0  0  0  0
    4.3850   -9.0730   28.6745 C   0  0  0  0  0  0  0  0  0  0  0  0
  1  7  4  0
  1 22  4  0
  2 17  4  0
  2 20  4  0
  2 28  4  0
  3  6  1  0
  3 19  1  0
  4 19  1  0
  4 26  1  0
  5 17  4  0
  5 18  4  0
  6 20  1  0
  6 26  1  0
  7 24  4  0
  8 15  4  0
  8 24  4  0
  9 14  4  0
  9 21  4  0
 10 12  4  0
 10 27  4  0
 11 12  4  0
 11 23  4  0
 13 23  4  0
 13 27  4  0
 14 20  4  0
 15 22  4  0
 16 18  4  0
 16 25  2  0
 16 28  4  0
 21 28  4  0
 24 27  1  0
M  END
$$$$

 Created by Python create_sdf_string function

 28 31  0  0  0  0  0  0  0  0999 V2000
   -1.0054  -13.0622   19.1198 C   0  0  0  0  0  0  0  0  0  0  0  0
    3.1478   -8.5360   28.5161 C   0  0  0  0  0  0  0  0  0  0  0  0
    0.5798   -7.1906   27.9330 C   0  0  0  0  0  0  0  0  0  0  0  0
    0.3978   -5.1561   26.6955 C   0  0  0  0  0  0  0  0  0  0  0  0
    2.3063  -10.0533   30.0125 C   0  0  0  0  0  0  0  0  0  0  0  0
    1.8591   -6.8254   27.4685 N   0  0  0  0  0  0  0  0  0  0  0  0
   -0.2167  -12.1055   18.5568 C   0  0  0  0  0  0  0  0  0  0  0  0
   -2.0661  -10.6994   18.1916 C   0  0  0  0  0  0  0  0  0  0  0  0
    5.2703   -7.5691   27.1123 C   0  0  0  0  0  0  0  0  0  0  0  0
    1.6204   -9.9887   17.2935 C   0  0  0  0  0  0  0  0  0  0  0  0
    1.8931   -7.9265   16.2047 C   0  0  0  0  0  0  0  0  0  0  0  0
    2.4396   -9.0801   16.7132 C   0  0  0  0  0  0  0  0  0  0  0  0
   -0.2575   -8.6234   16.8582 C   0  0  0  0  0  0  0  0  0  0  0  0
    4.0614   -7.0367   27.0106 N   0  0  0  0  0  0  0  0  0  0  0  0
   -2.9133  -11.6279   18.7578 C   0  0  0  0  0  0  0  0  0  0  0  0
    4.5688  -10.1291   29.5758 C   0  0  0  0  0  0  0  0  0  0  0  0
    2.1008   -9.0410   29.1852 N   0  0  0  0  0  0  0  0  0  0  0  0
    3.4829  -10.5697   30.2091 N   0  0  0  0  0  0  0  0  0  0  0  0
   -0.3363   -6.1172   27.5628 C   0  0  0  0  0  0  0  0  0  0  0  0
    3.0331   -7.4400   27.6362 C   0  0  0  0  0  0  0  0  0  0  0  0
    5.4553   -8.5933   27.9644 C   0  0  0  0  0  0  0  0  0  0  0  0
   -2.3870  -12.8440   19.2512 C   0  0  0  0  0  0  0  0  0  0  0  0
    0.5331   -7.6964   16.2751 C   0  0  0  0  0  0  0  0  0  0  0  0
   -0.6740  -10.8737   18.0482 C   0  0  0  0  0  0  0  0  0  0  0  0
    5.6751  -10.5870   29.7637 O   0  0  0  0  0  0  0  0  0  0  0  0
    1.7612   -5.6483   26.7172 C   0  0  0  0  0  0  0  0  0  0  0  0
    0.2221   -9.8326   17.4055 C   0  0  0  0  0  0  0  0  0  0  0  0
    4.3850   -9.0730   28.6745 C   0  0  0  0  0  0  0  0  0  0  0  0
  1  7  4  0
  1 22  4  0
  2 17  4  0
  2 20  4  0
  2 28  4  0
  3  6  1  0
  3 19  1  0
  4 19  1  0
  4 26  1  0
  5 17  4  0
  5 18  4  0
  6 20  1  0
  6 26  1  0
  7 24  4  0
  8 15  4  0
  8 24  4  0
  9 14  4  0
  9 21  4  0
 10 12  4  0
 10 27  4  0
 11 12  4  0
 11 23  4  0
 13 23  4  0
 13 27  4  0
 14 20  4  0
 15 22  4  0
 16 18  4  0
 16 25  2  0
 16 28  4  0
 21 28  4  0
 24 27  1  0
M  END
$$$$

 Created by Python create_sdf_string function

 28 31  0  0  0  0  0  0  0  0999 V2000
   -1.0054  -13.0622   19.1198 C   0  0  0  0  0  0  0  0  0  0  0  0
    3.1478   -8.5360   28.5161 C   0  0  0  0  0  0  0  0  0  0  0  0
    0.5798   -7.1906   27.9330 C   0  0  0  0  0  0  0  0  0  0  0  0
    0.3978   -5.1561   26.6955 C   0  0  0  0  0  0  0  0  0  0  0  0
    2.3063  -10.0533   30.0125 C   0  0  0  0  0  0  0  0  0  0  0  0
    1.8591   -6.8254   27.4685 N   0  0  0  0  0  0  0  0  0  0  0  0
   -0.2167  -12.1055   18.5568 C   0  0  0  0  0  0  0  0  0  0  0  0
   -2.0661  -10.6994   18.1916 C   0  0  0  0  0  0  0  0  0  0  0  0
    5.2703   -7.5691   27.1123 C   0  0  0  0  0  0  0  0  0  0  0  0
    1.6204   -9.9887   17.2935 C   0  0  0  0  0  0  0  0  0  0  0  0
    1.8931   -7.9265   16.2047 C   0  0  0  0  0  0  0  0  0  0  0  0
    2.4396   -9.0801   16.7132 C   0  0  0  0  0  0  0  0  0  0  0  0
   -0.2575   -8.6234   16.8582 C   0  0  0  0  0  0  0  0  0  0  0  0
    4.0614   -7.0367   27.0106 N   0  0  0  0  0  0  0  0  0  0  0  0
   -2.9133  -11.6279   18.7578 C   0  0  0  0  0  0  0  0  0  0  0  0
    4.5688  -10.1291   29.5758 C   0  0  0  0  0  0  0  0  0  0  0  0
    2.1008   -9.0410   29.1852 N   0  0  0  0  0  0  0  0  0  0  0  0
    3.4829  -10.5697   30.2091 N   0  0  0  0  0  0  0  0  0  0  0  0
   -0.3363   -6.1172   27.5628 C   0  0  0  0  0  0  0  0  0  0  0  0
    3.0331   -7.4400   27.6362 C   0  0  0  0  0  0  0  0  0  0  0  0
    5.4553   -8.5933   27.9644 C   0  0  0  0  0  0  0  0  0  0  0  0
   -2.3870  -12.8440   19.2512 C   0  0  0  0  0  0  0  0  0  0  0  0
    0.5331   -7.6964   16.2751 C   0  0  0  0  0  0  0  0  0  0  0  0
   -0.6740  -10.8737   18.0482 C   0  0  0  0  0  0  0  0  0  0  0  0
    5.6751  -10.5870   29.7637 O   0  0  0  0  0  0  0  0  0  0  0  0
    1.7612   -5.6483   26.7172 C   0  0  0  0  0  0  0  0  0  0  0  0
    0.2221   -9.8326   17.4055 C   0  0  0  0  0  0  0  0  0  0  0  0
    4.3850   -9.0730   28.6745 C   0  0  0  0  0  0  0  0  0  0  0  0
  1  7  4  0
  1 22  4  0
  2 17  4  0
  2 20  4  0
  2 28  4  0
  3  6  1  0
  3 19  1  0
  4 19  1  0
  4 26  1  0
  5 17  4  0
  5 18  4  0
  6 20  1  0
  6 26  1  0
  7 24  4  0
  8 15  4  0
  8 24  4  0
  9 14  4  0
  9 21  4  0
 10 12  4  0
 10 27  4  0
 11 12  4  0
 11 23  4  0
 13 23  4  0
 13 27  4  0
 14 20  4  0
 15 22  4  0
 16 18  4  0
 16 25  2  0
 16 28  4  0
 21 28  4  0
 24 27  1  0
M  END
$$$$

 Created by Python create_sdf_string function

 28 31  0  0  0  0  0  0  0  0999 V2000
   -1.0054  -13.0622   19.1198 C   0  0  0  0  0  0  0  0  0  0  0  0
    3.1478   -8.5360   28.5161 C   0  0  0  0  0  0  0  0  0  0  0  0
    0.5798   -7.1906   27.9330 C   0  0  0  0  0  0  0  0  0  0  0  0
    0.3978   -5.1561   26.6955 C   0  0  0  0  0  0  0  0  0  0  0  0
    2.3063  -10.0533   30.0125 C   0  0  0  0  0  0  0  0  0  0  0  0
    1.8591   -6.8254   27.4685 N   0  0  0  0  0  0  0  0  0  0  0  0
   -0.2167  -12.1055   18.5568 C   0  0  0  0  0  0  0  0  0  0  0  0
   -2.0661  -10.6994   18.1916 C   0  0  0  0  0  0  0  0  0  0  0  0
    5.2703   -7.5691   27.1123 C   0  0  0  0  0  0  0  0  0  0  0  0
    1.6204   -9.9887   17.2935 C   0  0  0  0  0  0  0  0  0  0  0  0
    1.8931   -7.9265   16.2047 C   0  0  0  0  0  0  0  0  0  0  0  0
    2.4396   -9.0801   16.7132 C   0  0  0  0  0  0  0  0  0  0  0  0
   -0.2575   -8.6234   16.8582 C   0  0  0  0  0  0  0  0  0  0  0  0
    4.0614   -7.0367   27.0106 N   0  0  0  0  0  0  0  0  0  0  0  0
   -2.9133  -11.6279   18.7578 C   0  0  0  0  0  0  0  0  0  0  0  0
    4.5688  -10.1291   29.5758 C   0  0  0  0  0  0  0  0  0  0  0  0
    2.1008   -9.0410   29.1852 N   0  0  0  0  0  0  0  0  0  0  0  0
    3.4829  -10.5697   30.2091 N   0  0  0  0  0  0  0  0  0  0  0  0
   -0.3363   -6.1172   27.5628 C   0  0  0  0  0  0  0  0  0  0  0  0
    3.0331   -7.4400   27.6362 C   0  0  0  0  0  0  0  0  0  0  0  0
    5.4553   -8.5933   27.9644 C   0  0  0  0  0  0  0  0  0  0  0  0
   -2.3870  -12.8440   19.2512 C   0  0  0  0  0  0  0  0  0  0  0  0
    0.5331   -7.6964   16.2751 C   0  0  0  0  0  0  0  0  0  0  0  0
   -0.6740  -10.8737   18.0482 C   0  0  0  0  0  0  0  0  0  0  0  0
    5.6751  -10.5870   29.7637 O   0  0  0  0  0  0  0  0  0  0  0  0
    1.7612   -5.6483   26.7172 C   0  0  0  0  0  0  0  0  0  0  0  0
    0.2221   -9.8326   17.4055 C   0  0  0  0  0  0  0  0  0  0  0  0
    4.3850   -9.0730   28.6745 C   0  0  0  0  0  0  0  0  0  0  0  0
  1  7  4  0
  1 22  4  0
  2 17  4  0
  2 20  4  0
  2 28  4  0
  3  6  1  0
  3 19  1  0
  4 19  1  0
  4 26  1  0
  5 17  4  0
  5 18  4  0
  6 20  1  0
  6 26  1  0
  7 24  4  0
  8 15  4  0
  8 24  4  0
  9 14  4  0
  9 21  4  0
 10 12  4  0
 10 27  4  0
 11 12  4  0
 11 23  4  0
 13 23  4  0
 13 27  4  0
 14 20  4  0
 15 22  4  0
 16 18  4  0
 16 25  2  0
 16 28  4  0
 21 28  4  0
 24 27  1  0
M  END
$$$$

 Created by Python create_sdf_string function

 28 31  0  0  0  0  0  0  0  0999 V2000
   -1.0054  -13.0622   19.1198 C   0  0  0  0  0  0  0  0  0  0  0  0
    3.1478   -8.5360   28.5161 C   0  0  0  0  0  0  0  0  0  0  0  0
    0.5798   -7.1906   27.9330 C   0  0  0  0  0  0  0  0  0  0  0  0
    0.3978   -5.1561   26.6955 C   0  0  0  0  0  0  0  0  0  0  0  0
    2.3063  -10.0533   30.0125 C   0  0  0  0  0  0  0  0  0  0  0  0
    1.8591   -6.8254   27.4685 N   0  0  0  0  0  0  0  0  0  0  0  0
   -0.2167  -12.1055   18.5568 C   0  0  0  0  0  0  0  0  0  0  0  0
   -2.0661  -10.6994   18.1916 C   0  0  0  0  0  0  0  0  0  0  0  0
    5.2703   -7.5691   27.1123 C   0  0  0  0  0  0  0  0  0  0  0  0
    1.6204   -9.9887   17.2935 C   0  0  0  0  0  0  0  0  0  0  0  0
    1.8931   -7.9265   16.2047 C   0  0  0  0  0  0  0  0  0  0  0  0
    2.4396   -9.0801   16.7132 C   0  0  0  0  0  0  0  0  0  0  0  0
   -0.2575   -8.6234   16.8582 C   0  0  0  0  0  0  0  0  0  0  0  0
    4.0614   -7.0367   27.0106 N   0  0  0  0  0  0  0  0  0  0  0  0
   -2.9133  -11.6279   18.7578 C   0  0  0  0  0  0  0  0  0  0  0  0
    4.5688  -10.1291   29.5758 C   0  0  0  0  0  0  0  0  0  0  0  0
    2.1008   -9.0410   29.1852 N   0  0  0  0  0  0  0  0  0  0  0  0
    3.4829  -10.5697   30.2091 N   0  0  0  0  0  0  0  0  0  0  0  0
   -0.3363   -6.1172   27.5628 C   0  0  0  0  0  0  0  0  0  0  0  0
    3.0331   -7.4400   27.6362 C   0  0  0  0  0  0  0  0  0  0  0  0
    5.4553   -8.5933   27.9644 C   0  0  0  0  0  0  0  0  0  0  0  0
   -2.3870  -12.8440   19.2512 C   0  0  0  0  0  0  0  0  0  0  0  0
    0.5331   -7.6964   16.2751 C   0  0  0  0  0  0  0  0  0  0  0  0
   -0.6740  -10.8737   18.0482 C   0  0  0  0  0  0  0  0  0  0  0  0
    5.6751  -10.5870   29.7637 O   0  0  0  0  0  0  0  0  0  0  0  0
    1.7612   -5.6483   26.7172 C   0  0  0  0  0  0  0  0  0  0  0  0
    0.2221   -9.8326   17.4055 C   0  0  0  0  0  0  0  0  0  0  0  0
    4.3850   -9.0730   28.6745 C   0  0  0  0  0  0  0  0  0  0  0  0
  1  7  4  0
  1 22  4  0
  2 17  4  0
  2 20  4  0
  2 28  4  0
  3  6  1  0
  3 19  1  0
  4 19  1  0
  4 26  1  0
  5 17  4  0
  5 18  4  0
  6 20  1  0
  6 26  1  0
  7 24  4  0
  8 15  4  0
  8 24  4  0
  9 14  4  0
  9 21  4  0
 10 12  4  0
 10 27  4  0
 11 12  4  0
 11 23  4  0
 13 23  4  0
 13 27  4  0
 14 20  4  0
 15 22  4  0
 16 18  4  0
 16 25  2  0
 16 28  4  0
 21 28  4  0
 24 27  1  0
M  END
$$$$

 Created by Python create_sdf_string function

 28 31  0  0  0  0  0  0  0  0999 V2000
   -1.0054  -13.0622   19.1198 C   0  0  0  0  0  0  0  0  0  0  0  0
    3.1478   -8.5360   28.5161 C   0  0  0  0  0  0  0  0  0  0  0  0
    0.5798   -7.1906   27.9330 C   0  0  0  0  0  0  0  0  0  0  0  0
    0.3978   -5.1561   26.6955 C   0  0  0  0  0  0  0  0  0  0  0  0
    2.3063  -10.0533   30.0125 C   0  0  0  0  0  0  0  0  0  0  0  0
    1.8591   -6.8254   27.4685 N   0  0  0  0  0  0  0  0  0  0  0  0
   -0.2167  -12.1055   18.5568 C   0  0  0  0  0  0  0  0  0  0  0  0
   -2.0661  -10.6994   18.1916 C   0  0  0  0  0  0  0  0  0  0  0  0
    5.2703   -7.5691   27.1123 C   0  0  0  0  0  0  0  0  0  0  0  0
    1.6204   -9.9887   17.2935 C   0  0  0  0  0  0  0  0  0  0  0  0
    1.8931   -7.9265   16.2047 C   0  0  0  0  0  0  0  0  0  0  0  0
    2.4396   -9.0801   16.7132 C   0  0  0  0  0  0  0  0  0  0  0  0
   -0.2575   -8.6234   16.8582 C   0  0  0  0  0  0  0  0  0  0  0  0
    4.0614   -7.0367   27.0106 N   0  0  0  0  0  0  0  0  0  0  0  0
   -2.9133  -11.6279   18.7578 C   0  0  0  0  0  0  0  0  0  0  0  0
    4.5688  -10.1291   29.5758 C   0  0  0  0  0  0  0  0  0  0  0  0
    2.1008   -9.0410   29.1852 N   0  0  0  0  0  0  0  0  0  0  0  0
    3.4829  -10.5697   30.2091 N   0  0  0  0  0  0  0  0  0  0  0  0
   -0.3363   -6.1172   27.5628 C   0  0  0  0  0  0  0  0  0  0  0  0
    3.0331   -7.4400   27.6362 C   0  0  0  0  0  0  0  0  0  0  0  0
    5.4553   -8.5933   27.9644 C   0  0  0  0  0  0  0  0  0  0  0  0
   -2.3870  -12.8440   19.2512 C   0  0  0  0  0  0  0  0  0  0  0  0
    0.5331   -7.6964   16.2751 C   0  0  0  0  0  0  0  0  0  0  0  0
   -0.6740  -10.8737   18.0482 C   0  0  0  0  0  0  0  0  0  0  0  0
    5.6751  -10.5870   29.7637 O   0  0  0  0  0  0  0  0  0  0  0  0
    1.7612   -5.6483   26.7172 C   0  0  0  0  0  0  0  0  0  0  0  0
    0.2221   -9.8326   17.4055 C   0  0  0  0  0  0  0  0  0  0  0  0
    4.3850   -9.0730   28.6745 C   0  0  0  0  0  0  0  0  0  0  0  0
  1  7  4  0
  1 22  4  0
  2 17  4  0
  2 20  4  0
  2 28  4  0
  3  6  1  0
  3 19  1  0
  4 19  1  0
  4 26  1  0
  5 17  4  0
  5 18  4  0
  6 20  1  0
  6 26  1  0
  7 24  4  0
  8 15  4  0
  8 24  4  0
  9 14  4  0
  9 21  4  0
 10 12  4  0
 10 27  4  0
 11 12  4  0
 11 23  4  0
 13 23  4  0
 13 27  4  0
 14 20  4  0
 15 22  4  0
 16 18  4  0
 16 25  2  0
 16 28  4  0
 21 28  4  0
 24 27  1  0
M  END
$$$$

 Created by Python create_sdf_string function

 28 31  0  0  0  0  0  0  0  0999 V2000
   -1.0054  -13.0622   19.1198 C   0  0  0  0  0  0  0  0  0  0  0  0
    3.1478   -8.5360   28.5161 C   0  0  0  0  0  0  0  0  0  0  0  0
    0.5798   -7.1906   27.9330 C   0  0  0  0  0  0  0  0  0  0  0  0
    0.3978   -5.1561   26.6955 C   0  0  0  0  0  0  0  0  0  0  0  0
    2.3063  -10.0533   30.0125 C   0  0  0  0  0  0  0  0  0  0  0  0
    1.8591   -6.8254   27.4685 N   0  0  0  0  0  0  0  0  0  0  0  0
   -0.2167  -12.1055   18.5568 C   0  0  0  0  0  0  0  0  0  0  0  0
   -2.0661  -10.6994   18.1916 C   0  0  0  0  0  0  0  0  0  0  0  0
    5.2703   -7.5691   27.1123 C   0  0  0  0  0  0  0  0  0  0  0  0
    1.6204   -9.9887   17.2935 C   0  0  0  0  0  0  0  0  0  0  0  0
    1.8931   -7.9265   16.2047 C   0  0  0  0  0  0  0  0  0  0  0  0
    2.4396   -9.0801   16.7132 C   0  0  0  0  0  0  0  0  0  0  0  0
   -0.2575   -8.6234   16.8582 C   0  0  0  0  0  0  0  0  0  0  0  0
    4.0614   -7.0367   27.0106 N   0  0  0  0  0  0  0  0  0  0  0  0
   -2.9133  -11.6279   18.7578 C   0  0  0  0  0  0  0  0  0  0  0  0
    4.5688  -10.1291   29.5758 C   0  0  0  0  0  0  0  0  0  0  0  0
    2.1008   -9.0410   29.1852 N   0  0  0  0  0  0  0  0  0  0  0  0
    3.4829  -10.5697   30.2091 N   0  0  0  0  0  0  0  0  0  0  0  0
   -0.3363   -6.1172   27.5628 C   0  0  0  0  0  0  0  0  0  0  0  0
    3.0331   -7.4400   27.6362 C   0  0  0  0  0  0  0  0  0  0  0  0
    5.4553   -8.5933   27.9644 C   0  0  0  0  0  0  0  0  0  0  0  0
   -2.3870  -12.8440   19.2512 C   0  0  0  0  0  0  0  0  0  0  0  0
    0.5331   -7.6964   16.2751 C   0  0  0  0  0  0  0  0  0  0  0  0
   -0.6740  -10.8737   18.0482 C   0  0  0  0  0  0  0  0  0  0  0  0
    5.6751  -10.5870   29.7637 O   0  0  0  0  0  0  0  0  0  0  0  0
    1.7612   -5.6483   26.7172 C   0  0  0  0  0  0  0  0  0  0  0  0
    0.2221   -9.8326   17.4055 C   0  0  0  0  0  0  0  0  0  0  0  0
    4.3850   -9.0730   28.6745 C   0  0  0  0  0  0  0  0  0  0  0  0
  1  7  4  0
  1 22  4  0
  2 17  4  0
  2 20  4  0
  2 28  4  0
  3  6  1  0
  3 19  1  0
  4 19  1  0
  4 26  1  0
  5 17  4  0
  5 18  4  0
  6 20  1  0
  6 26  1  0
  7 24  4  0
  8 15  4  0
  8 24  4  0
  9 14  4  0
  9 21  4  0
 10 12  4  0
 10 27  4  0
 11 12  4  0
 11 23  4  0
 13 23  4  0
 13 27  4  0
 14 20  4  0
 15 22  4  0
 16 18  4  0
 16 25  2  0
 16 28  4  0
 21 28  4  0
 24 27  1  0
M  END
$$$$

 Created by Python create_sdf_string function

 28 31  0  0  0  0  0  0  0  0999 V2000
   -1.0054  -13.0622   19.1198 C   0  0  0  0  0  0  0  0  0  0  0  0
    3.1478   -8.5360   28.5161 C   0  0  0  0  0  0  0  0  0  0  0  0
    0.5798   -7.1906   27.9330 C   0  0  0  0  0  0  0  0  0  0  0  0
    0.3978   -5.1561   26.6955 C   0  0  0  0  0  0  0  0  0  0  0  0
    2.3063  -10.0533   30.0125 C   0  0  0  0  0  0  0  0  0  0  0  0
    1.8591   -6.8254   27.4685 N   0  0  0  0  0  0  0  0  0  0  0  0
   -0.2167  -12.1055   18.5568 C   0  0  0  0  0  0  0  0  0  0  0  0
   -2.0661  -10.6994   18.1916 C   0  0  0  0  0  0  0  0  0  0  0  0
    5.2703   -7.5691   27.1123 C   0  0  0  0  0  0  0  0  0  0  0  0
    1.6204   -9.9887   17.2935 C   0  0  0  0  0  0  0  0  0  0  0  0
    1.8931   -7.9265   16.2047 C   0  0  0  0  0  0  0  0  0  0  0  0
    2.4396   -9.0801   16.7132 C   0  0  0  0  0  0  0  0  0  0  0  0
   -0.2575   -8.6234   16.8582 C   0  0  0  0  0  0  0  0  0  0  0  0
    4.0614   -7.0367   27.0106 N   0  0  0  0  0  0  0  0  0  0  0  0
   -2.9133  -11.6279   18.7578 C   0  0  0  0  0  0  0  0  0  0  0  0
    4.5688  -10.1291   29.5758 C   0  0  0  0  0  0  0  0  0  0  0  0
    2.1008   -9.0410   29.1852 N   0  0  0  0  0  0  0  0  0  0  0  0
    3.4829  -10.5697   30.2091 N   0  0  0  0  0  0  0  0  0  0  0  0
   -0.3363   -6.1172   27.5628 C   0  0  0  0  0  0  0  0  0  0  0  0
    3.0331   -7.4400   27.6362 C   0  0  0  0  0  0  0  0  0  0  0  0
    5.4553   -8.5933   27.9644 C   0  0  0  0  0  0  0  0  0  0  0  0
   -2.3870  -12.8440   19.2512 C   0  0  0  0  0  0  0  0  0  0  0  0
    0.5331   -7.6964   16.2751 C   0  0  0  0  0  0  0  0  0  0  0  0
   -0.6740  -10.8737   18.0482 C   0  0  0  0  0  0  0  0  0  0  0  0
    5.6751  -10.5870   29.7637 O   0  0  0  0  0  0  0  0  0  0  0  0
    1.7612   -5.6483   26.7172 C   0  0  0  0  0  0  0  0  0  0  0  0
    0.2221   -9.8326   17.4055 C   0  0  0  0  0  0  0  0  0  0  0  0
    4.3850   -9.0730   28.6745 C   0  0  0  0  0  0  0  0  0  0  0  0
  1  7  4  0
  1 22  4  0
  2 17  4  0
  2 20  4  0
  2 28  4  0
  3  6  1  0
  3 19  1  0
  4 19  1  0
  4 26  1  0
  5 17  4  0
  5 18  4  0
  6 20  1  0
  6 26  1  0
  7 24  4  0
  8 15  4  0
  8 24  4  0
  9 14  4  0
  9 21  4  0
 10 12  4  0
 10 27  4  0
 11 12  4  0
 11 23  4  0
 13 23  4  0
 13 27  4  0
 14 20  4  0
 15 22  4  0
 16 18  4  0
 16 25  2  0
 16 28  4  0
 21 28  4  0
 24 27  1  0
M  END
$$$$

 Created by Python create_sdf_string function

 28 31  0  0  0  0  0  0  0  0999 V2000
   -1.0054  -13.0622   19.1198 C   0  0  0  0  0  0  0  0  0  0  0  0
    3.1478   -8.5360   28.5161 C   0  0  0  0  0  0  0  0  0  0  0  0
    0.5798   -7.1906   27.9330 C   0  0  0  0  0  0  0  0  0  0  0  0
    0.3978   -5.1561   26.6955 C   0  0  0  0  0  0  0  0  0  0  0  0
    2.3063  -10.0533   30.0125 C   0  0  0  0  0  0  0  0  0  0  0  0
    1.8591   -6.8254   27.4685 N   0  0  0  0  0  0  0  0  0  0  0  0
   -0.2167  -12.1055   18.5568 C   0  0  0  0  0  0  0  0  0  0  0  0
   -2.0661  -10.6994   18.1916 C   0  0  0  0  0  0  0  0  0  0  0  0
    5.2703   -7.5691   27.1123 C   0  0  0  0  0  0  0  0  0  0  0  0
    1.6204   -9.9887   17.2935 C   0  0  0  0  0  0  0  0  0  0  0  0
    1.8931   -7.9265   16.2047 C   0  0  0  0  0  0  0  0  0  0  0  0
    2.4396   -9.0801   16.7132 C   0  0  0  0  0  0  0  0  0  0  0  0
   -0.2575   -8.6234   16.8582 C   0  0  0  0  0  0  0  0  0  0  0  0
    4.0614   -7.0367   27.0106 N   0  0  0  0  0  0  0  0  0  0  0  0
   -2.9133  -11.6279   18.7578 C   0  0  0  0  0  0  0  0  0  0  0  0
    4.5688  -10.1291   29.5758 C   0  0  0  0  0  0  0  0  0  0  0  0
    2.1008   -9.0410   29.1852 N   0  0  0  0  0  0  0  0  0  0  0  0
    3.4829  -10.5697   30.2091 N   0  0  0  0  0  0  0  0  0  0  0  0
   -0.3363   -6.1172   27.5628 C   0  0  0  0  0  0  0  0  0  0  0  0
    3.0331   -7.4400   27.6362 C   0  0  0  0  0  0  0  0  0  0  0  0
    5.4553   -8.5933   27.9644 C   0  0  0  0  0  0  0  0  0  0  0  0
   -2.3870  -12.8440   19.2512 C   0  0  0  0  0  0  0  0  0  0  0  0
    0.5331   -7.6964   16.2751 C   0  0  0  0  0  0  0  0  0  0  0  0
   -0.6740  -10.8737   18.0482 C   0  0  0  0  0  0  0  0  0  0  0  0
    5.6751  -10.5870   29.7637 O   0  0  0  0  0  0  0  0  0  0  0  0
    1.7612   -5.6483   26.7172 C   0  0  0  0  0  0  0  0  0  0  0  0
    0.2221   -9.8326   17.4055 C   0  0  0  0  0  0  0  0  0  0  0  0
    4.3850   -9.0730   28.6745 C   0  0  0  0  0  0  0  0  0  0  0  0
  1  7  4  0
  1 22  4  0
  2 17  4  0
  2 20  4  0
  2 28  4  0
  3  6  1  0
  3 19  1  0
  4 19  1  0
  4 26  1  0
  5 17  4  0
  5 18  4  0
  6 20  1  0
  6 26  1  0
  7 24  4  0
  8 15  4  0
  8 24  4  0
  9 14  4  0
  9 21  4  0
 10 12  4  0
 10 27  4  0
 11 12  4  0
 11 23  4  0
 13 23  4  0
 13 27  4  0
 14 20  4  0
 15 22  4  0
 16 18  4  0
 16 25  2  0
 16 28  4  0
 21 28  4  0
 24 27  1  0
M  END
$$$$

 Created by Python create_sdf_string function

 28 31  0  0  0  0  0  0  0  0999 V2000
   -1.0054  -13.0622   19.1198 C   0  0  0  0  0  0  0  0  0  0  0  0
    3.1478   -8.5360   28.5161 C   0  0  0  0  0  0  0  0  0  0  0  0
    0.5798   -7.1906   27.9330 C   0  0  0  0  0  0  0  0  0  0  0  0
    0.3978   -5.1561   26.6955 C   0  0  0  0  0  0  0  0  0  0  0  0
    2.3063  -10.0533   30.0125 C   0  0  0  0  0  0  0  0  0  0  0  0
    1.8591   -6.8254   27.4685 N   0  0  0  0  0  0  0  0  0  0  0  0
   -0.2167  -12.1055   18.5568 C   0  0  0  0  0  0  0  0  0  0  0  0
   -2.0661  -10.6994   18.1916 C   0  0  0  0  0  0  0  0  0  0  0  0
    5.2703   -7.5691   27.1123 C   0  0  0  0  0  0  0  0  0  0  0  0
    1.6204   -9.9887   17.2935 C   0  0  0  0  0  0  0  0  0  0  0  0
    1.8931   -7.9265   16.2047 C   0  0  0  0  0  0  0  0  0  0  0  0
    2.4396   -9.0801   16.7132 C   0  0  0  0  0  0  0  0  0  0  0  0
   -0.2575   -8.6234   16.8582 C   0  0  0  0  0  0  0  0  0  0  0  0
    4.0614   -7.0367   27.0106 N   0  0  0  0  0  0  0  0  0  0  0  0
   -2.9133  -11.6279   18.7578 C   0  0  0  0  0  0  0  0  0  0  0  0
    4.5688  -10.1291   29.5758 C   0  0  0  0  0  0  0  0  0  0  0  0
    2.1008   -9.0410   29.1852 N   0  0  0  0  0  0  0  0  0  0  0  0
    3.4829  -10.5697   30.2091 N   0  0  0  0  0  0  0  0  0  0  0  0
   -0.3363   -6.1172   27.5628 C   0  0  0  0  0  0  0  0  0  0  0  0
    3.0331   -7.4400   27.6362 C   0  0  0  0  0  0  0  0  0  0  0  0
    5.4553   -8.5933   27.9644 C   0  0  0  0  0  0  0  0  0  0  0  0
   -2.3870  -12.8440   19.2512 C   0  0  0  0  0  0  0  0  0  0  0  0
    0.5331   -7.6964   16.2751 C   0  0  0  0  0  0  0  0  0  0  0  0
   -0.6740  -10.8737   18.0482 C   0  0  0  0  0  0  0  0  0  0  0  0
    5.6751  -10.5870   29.7637 O   0  0  0  0  0  0  0  0  0  0  0  0
    1.7612   -5.6483   26.7172 C   0  0  0  0  0  0  0  0  0  0  0  0
    0.2221   -9.8326   17.4055 C   0  0  0  0  0  0  0  0  0  0  0  0
    4.3850   -9.0730   28.6745 C   0  0  0  0  0  0  0  0  0  0  0  0
  1  7  4  0
  1 22  4  0
  2 17  4  0
  2 20  4  0
  2 28  4  0
  3  6  1  0
  3 19  1  0
  4 19  1  0
  4 26  1  0
  5 17  4  0
  5 18  4  0
  6 20  1  0
  6 26  1  0
  7 24  4  0
  8 15  4  0
  8 24  4  0
  9 14  4  0
  9 21  4  0
 10 12  4  0
 10 27  4  0
 11 12  4  0
 11 23  4  0
 13 23  4  0
 13 27  4  0
 14 20  4  0
 15 22  4  0
 16 18  4  0
 16 25  2  0
 16 28  4  0
 21 28  4  0
 24 27  1  0
M  END
$$$$

 Created by Python create_sdf_string function

 28 31  0  0  0  0  0  0  0  0999 V2000
   -1.0054  -13.0622   19.1198 C   0  0  0  0  0  0  0  0  0  0  0  0
    3.1478   -8.5360   28.5161 C   0  0  0  0  0  0  0  0  0  0  0  0
    0.5798   -7.1906   27.9330 C   0  0  0  0  0  0  0  0  0  0  0  0
    0.3978   -5.1561   26.6955 C   0  0  0  0  0  0  0  0  0  0  0  0
    2.3063  -10.0533   30.0125 C   0  0  0  0  0  0  0  0  0  0  0  0
    1.8591   -6.8254   27.4685 N   0  0  0  0  0  0  0  0  0  0  0  0
   -0.2167  -12.1055   18.5568 C   0  0  0  0  0  0  0  0  0  0  0  0
   -2.0661  -10.6994   18.1916 C   0  0  0  0  0  0  0  0  0  0  0  0
    5.2703   -7.5691   27.1123 C   0  0  0  0  0  0  0  0  0  0  0  0
    1.6204   -9.9887   17.2935 C   0  0  0  0  0  0  0  0  0  0  0  0
    1.8931   -7.9265   16.2047 C   0  0  0  0  0  0  0  0  0  0  0  0
    2.4396   -9.0801   16.7132 C   0  0  0  0  0  0  0  0  0  0  0  0
   -0.2575   -8.6234   16.8582 C   0  0  0  0  0  0  0  0  0  0  0  0
    4.0614   -7.0367   27.0106 N   0  0  0  0  0  0  0  0  0  0  0  0
   -2.9133  -11.6279   18.7578 C   0  0  0  0  0  0  0  0  0  0  0  0
    4.5688  -10.1291   29.5758 C   0  0  0  0  0  0  0  0  0  0  0  0
    2.1008   -9.0410   29.1852 N   0  0  0  0  0  0  0  0  0  0  0  0
    3.4829  -10.5697   30.2091 N   0  0  0  0  0  0  0  0  0  0  0  0
   -0.3363   -6.1172   27.5628 C   0  0  0  0  0  0  0  0  0  0  0  0
    3.0331   -7.4400   27.6362 C   0  0  0  0  0  0  0  0  0  0  0  0
    5.4553   -8.5933   27.9644 C   0  0  0  0  0  0  0  0  0  0  0  0
   -2.3870  -12.8440   19.2512 C   0  0  0  0  0  0  0  0  0  0  0  0
    0.5331   -7.6964   16.2751 C   0  0  0  0  0  0  0  0  0  0  0  0
   -0.6740  -10.8737   18.0482 C   0  0  0  0  0  0  0  0  0  0  0  0
    5.6751  -10.5870   29.7637 O   0  0  0  0  0  0  0  0  0  0  0  0
    1.7612   -5.6483   26.7172 C   0  0  0  0  0  0  0  0  0  0  0  0
    0.2221   -9.8326   17.4055 C   0  0  0  0  0  0  0  0  0  0  0  0
    4.3850   -9.0730   28.6745 C   0  0  0  0  0  0  0  0  0  0  0  0
  1  7  4  0
  1 22  4  0
  2 17  4  0
  2 20  4  0
  2 28  4  0
  3  6  1  0
  3 19  1  0
  4 19  1  0
  4 26  1  0
  5 17  4  0
  5 18  4  0
  6 20  1  0
  6 26  1  0
  7 24  4  0
  8 15  4  0
  8 24  4  0
  9 14  4  0
  9 21  4  0
 10 12  4  0
 10 27  4  0
 11 12  4  0
 11 23  4  0
 13 23  4  0
 13 27  4  0
 14 20  4  0
 15 22  4  0
 16 18  4  0
 16 25  2  0
 16 28  4  0
 21 28  4  0
 24 27  1  0
M  END
$$$$

 Created by Python create_sdf_string function

 28 31  0  0  0  0  0  0  0  0999 V2000
   -1.0054  -13.0622   19.1198 C   0  0  0  0  0  0  0  0  0  0  0  0
    3.1478   -8.5360   28.5161 C   0  0  0  0  0  0  0  0  0  0  0  0
    0.5798   -7.1906   27.9330 C   0  0  0  0  0  0  0  0  0  0  0  0
    0.3978   -5.1561   26.6955 C   0  0  0  0  0  0  0  0  0  0  0  0
    2.3063  -10.0533   30.0125 C   0  0  0  0  0  0  0  0  0  0  0  0
    1.8591   -6.8254   27.4685 N   0  0  0  0  0  0  0  0  0  0  0  0
   -0.2167  -12.1055   18.5568 C   0  0  0  0  0  0  0  0  0  0  0  0
   -2.0661  -10.6994   18.1916 C   0  0  0  0  0  0  0  0  0  0  0  0
    5.2703   -7.5691   27.1123 C   0  0  0  0  0  0  0  0  0  0  0  0
    1.6204   -9.9887   17.2935 C   0  0  0  0  0  0  0  0  0  0  0  0
    1.8931   -7.9265   16.2047 C   0  0  0  0  0  0  0  0  0  0  0  0
    2.4396   -9.0801   16.7132 C   0  0  0  0  0  0  0  0  0  0  0  0
   -0.2575   -8.6234   16.8582 C   0  0  0  0  0  0  0  0  0  0  0  0
    4.0614   -7.0367   27.0106 N   0  0  0  0  0  0  0  0  0  0  0  0
   -2.9133  -11.6279   18.7578 C   0  0  0  0  0  0  0  0  0  0  0  0
    4.5688  -10.1291   29.5758 C   0  0  0  0  0  0  0  0  0  0  0  0
    2.1008   -9.0410   29.1852 N   0  0  0  0  0  0  0  0  0  0  0  0
    3.4829  -10.5697   30.2091 N   0  0  0  0  0  0  0  0  0  0  0  0
   -0.3363   -6.1172   27.5628 C   0  0  0  0  0  0  0  0  0  0  0  0
    3.0331   -7.4400   27.6362 C   0  0  0  0  0  0  0  0  0  0  0  0
    5.4553   -8.5933   27.9644 C   0  0  0  0  0  0  0  0  0  0  0  0
   -2.3870  -12.8440   19.2512 C   0  0  0  0  0  0  0  0  0  0  0  0
    0.5331   -7.6964   16.2751 C   0  0  0  0  0  0  0  0  0  0  0  0
   -0.6740  -10.8737   18.0482 C   0  0  0  0  0  0  0  0  0  0  0  0
    5.6751  -10.5870   29.7637 O   0  0  0  0  0  0  0  0  0  0  0  0
    1.7612   -5.6483   26.7172 C   0  0  0  0  0  0  0  0  0  0  0  0
    0.2221   -9.8326   17.4055 C   0  0  0  0  0  0  0  0  0  0  0  0
    4.3850   -9.0730   28.6745 C   0  0  0  0  0  0  0  0  0  0  0  0
  1  7  4  0
  1 22  4  0
  2 17  4  0
  2 20  4  0
  2 28  4  0
  3  6  1  0
  3 19  1  0
  4 19  1  0
  4 26  1  0
  5 17  4  0
  5 18  4  0
  6 20  1  0
  6 26  1  0
  7 24  4  0
  8 15  4  0
  8 24  4  0
  9 14  4  0
  9 21  4  0
 10 12  4  0
 10 27  4  0
 11 12  4  0
 11 23  4  0
 13 23  4  0
 13 27  4  0
 14 20  4  0
 15 22  4  0
 16 18  4  0
 16 25  2  0
 16 28  4  0
 21 28  4  0
 24 27  1  0
M  END
$$$$

 Created by Python create_sdf_string function

 28 31  0  0  0  0  0  0  0  0999 V2000
   -1.0054  -13.0622   19.1198 C   0  0  0  0  0  0  0  0  0  0  0  0
    3.1478   -8.5360   28.5161 C   0  0  0  0  0  0  0  0  0  0  0  0
    0.5798   -7.1906   27.9330 C   0  0  0  0  0  0  0  0  0  0  0  0
    0.3978   -5.1561   26.6955 C   0  0  0  0  0  0  0  0  0  0  0  0
    2.3063  -10.0533   30.0125 C   0  0  0  0  0  0  0  0  0  0  0  0
    1.8591   -6.8254   27.4685 N   0  0  0  0  0  0  0  0  0  0  0  0
   -0.2167  -12.1055   18.5568 C   0  0  0  0  0  0  0  0  0  0  0  0
   -2.0661  -10.6994   18.1916 C   0  0  0  0  0  0  0  0  0  0  0  0
    5.2703   -7.5691   27.1123 C   0  0  0  0  0  0  0  0  0  0  0  0
    1.6204   -9.9887   17.2935 C   0  0  0  0  0  0  0  0  0  0  0  0
    1.8931   -7.9265   16.2047 C   0  0  0  0  0  0  0  0  0  0  0  0
    2.4396   -9.0801   16.7132 C   0  0  0  0  0  0  0  0  0  0  0  0
   -0.2575   -8.6234   16.8582 C   0  0  0  0  0  0  0  0  0  0  0  0
    4.0614   -7.0367   27.0106 N   0  0  0  0  0  0  0  0  0  0  0  0
   -2.9133  -11.6279   18.7578 C   0  0  0  0  0  0  0  0  0  0  0  0
    4.5688  -10.1291   29.5758 C   0  0  0  0  0  0  0  0  0  0  0  0
    2.1008   -9.0410   29.1852 N   0  0  0  0  0  0  0  0  0  0  0  0
    3.4829  -10.5697   30.2091 N   0  0  0  0  0  0  0  0  0  0  0  0
   -0.3363   -6.1172   27.5628 C   0  0  0  0  0  0  0  0  0  0  0  0
    3.0331   -7.4400   27.6362 C   0  0  0  0  0  0  0  0  0  0  0  0
    5.4553   -8.5933   27.9644 C   0  0  0  0  0  0  0  0  0  0  0  0
   -2.3870  -12.8440   19.2512 C   0  0  0  0  0  0  0  0  0  0  0  0
    0.5331   -7.6964   16.2751 C   0  0  0  0  0  0  0  0  0  0  0  0
   -0.6740  -10.8737   18.0482 C   0  0  0  0  0  0  0  0  0  0  0  0
    5.6751  -10.5870   29.7637 O   0  0  0  0  0  0  0  0  0  0  0  0
    1.7612   -5.6483   26.7172 C   0  0  0  0  0  0  0  0  0  0  0  0
    0.2221   -9.8326   17.4055 C   0  0  0  0  0  0  0  0  0  0  0  0
    4.3850   -9.0730   28.6745 C   0  0  0  0  0  0  0  0  0  0  0  0
  1  7  4  0
  1 22  4  0
  2 17  4  0
  2 20  4  0
  2 28  4  0
  3  6  1  0
  3 19  1  0
  4 19  1  0
  4 26  1  0
  5 17  4  0
  5 18  4  0
  6 20  1  0
  6 26  1  0
  7 24  4  0
  8 15  4  0
  8 24  4  0
  9 14  4  0
  9 21  4  0
 10 12  4  0
 10 27  4  0
 11 12  4  0
 11 23  4  0
 13 23  4  0
 13 27  4  0
 14 20  4  0
 15 22  4  0
 16 18  4  0
 16 25  2  0
 16 28  4  0
 21 28  4  0
 24 27  1  0
M  END
$$$$

 Created by Python create_sdf_string function

 28 31  0  0  0  0  0  0  0  0999 V2000
   -1.0054  -13.0622   19.1198 C   0  0  0  0  0  0  0  0  0  0  0  0
    3.1478   -8.5360   28.5161 C   0  0  0  0  0  0  0  0  0  0  0  0
    0.5798   -7.1906   27.9330 C   0  0  0  0  0  0  0  0  0  0  0  0
    0.3978   -5.1561   26.6955 C   0  0  0  0  0  0  0  0  0  0  0  0
    2.3063  -10.0533   30.0125 C   0  0  0  0  0  0  0  0  0  0  0  0
    1.8591   -6.8254   27.4685 N   0  0  0  0  0  0  0  0  0  0  0  0
   -0.2167  -12.1055   18.5568 C   0  0  0  0  0  0  0  0  0  0  0  0
   -2.0661  -10.6994   18.1916 C   0  0  0  0  0  0  0  0  0  0  0  0
    5.2703   -7.5691   27.1123 C   0  0  0  0  0  0  0  0  0  0  0  0
    1.6204   -9.9887   17.2935 C   0  0  0  0  0  0  0  0  0  0  0  0
    1.8931   -7.9265   16.2047 C   0  0  0  0  0  0  0  0  0  0  0  0
    2.4396   -9.0801   16.7132 C   0  0  0  0  0  0  0  0  0  0  0  0
   -0.2575   -8.6234   16.8582 C   0  0  0  0  0  0  0  0  0  0  0  0
    4.0614   -7.0367   27.0106 N   0  0  0  0  0  0  0  0  0  0  0  0
   -2.9133  -11.6279   18.7578 C   0  0  0  0  0  0  0  0  0  0  0  0
    4.5688  -10.1291   29.5758 C   0  0  0  0  0  0  0  0  0  0  0  0
    2.1008   -9.0410   29.1852 N   0  0  0  0  0  0  0  0  0  0  0  0
    3.4829  -10.5697   30.2091 N   0  0  0  0  0  0  0  0  0  0  0  0
   -0.3363   -6.1172   27.5628 C   0  0  0  0  0  0  0  0  0  0  0  0
    3.0331   -7.4400   27.6362 C   0  0  0  0  0  0  0  0  0  0  0  0
    5.4553   -8.5933   27.9644 C   0  0  0  0  0  0  0  0  0  0  0  0
   -2.3870  -12.8440   19.2512 C   0  0  0  0  0  0  0  0  0  0  0  0
    0.5331   -7.6964   16.2751 C   0  0  0  0  0  0  0  0  0  0  0  0
   -0.6740  -10.8737   18.0482 C   0  0  0  0  0  0  0  0  0  0  0  0
    5.6751  -10.5870   29.7637 O   0  0  0  0  0  0  0  0  0  0  0  0
    1.7612   -5.6483   26.7172 C   0  0  0  0  0  0  0  0  0  0  0  0
    0.2221   -9.8326   17.4055 C   0  0  0  0  0  0  0  0  0  0  0  0
    4.3850   -9.0730   28.6745 C   0  0  0  0  0  0  0  0  0  0  0  0
  1  7  4  0
  1 22  4  0
  2 17  4  0
  2 20  4  0
  2 28  4  0
  3  6  1  0
  3 19  1  0
  4 19  1  0
  4 26  1  0
  5 17  4  0
  5 18  4  0
  6 20  1  0
  6 26  1  0
  7 24  4  0
  8 15  4  0
  8 24  4  0
  9 14  4  0
  9 21  4  0
 10 12  4  0
 10 27  4  0
 11 12  4  0
 11 23  4  0
 13 23  4  0
 13 27  4  0
 14 20  4  0
 15 22  4  0
 16 18  4  0
 16 25  2  0
 16 28  4  0
 21 28  4  0
 24 27  1  0
M  END
$$$$

 Created by Python create_sdf_string function

 28 31  0  0  0  0  0  0  0  0999 V2000
   -1.0054  -13.0622   19.1198 C   0  0  0  0  0  0  0  0  0  0  0  0
    3.1478   -8.5360   28.5161 C   0  0  0  0  0  0  0  0  0  0  0  0
    0.5798   -7.1906   27.9330 C   0  0  0  0  0  0  0  0  0  0  0  0
    0.3978   -5.1561   26.6955 C   0  0  0  0  0  0  0  0  0  0  0  0
    2.3063  -10.0533   30.0125 C   0  0  0  0  0  0  0  0  0  0  0  0
    1.8591   -6.8254   27.4685 N   0  0  0  0  0  0  0  0  0  0  0  0
   -0.2167  -12.1055   18.5568 C   0  0  0  0  0  0  0  0  0  0  0  0
   -2.0661  -10.6994   18.1916 C   0  0  0  0  0  0  0  0  0  0  0  0
    5.2703   -7.5691   27.1123 C   0  0  0  0  0  0  0  0  0  0  0  0
    1.6204   -9.9887   17.2935 C   0  0  0  0  0  0  0  0  0  0  0  0
    1.8931   -7.9265   16.2047 C   0  0  0  0  0  0  0  0  0  0  0  0
    2.4396   -9.0801   16.7132 C   0  0  0  0  0  0  0  0  0  0  0  0
   -0.2575   -8.6234   16.8582 C   0  0  0  0  0  0  0  0  0  0  0  0
    4.0614   -7.0367   27.0106 N   0  0  0  0  0  0  0  0  0  0  0  0
   -2.9133  -11.6279   18.7578 C   0  0  0  0  0  0  0  0  0  0  0  0
    4.5688  -10.1291   29.5758 C   0  0  0  0  0  0  0  0  0  0  0  0
    2.1008   -9.0410   29.1852 N   0  0  0  0  0  0  0  0  0  0  0  0
    3.4829  -10.5697   30.2091 N   0  0  0  0  0  0  0  0  0  0  0  0
   -0.3363   -6.1172   27.5628 C   0  0  0  0  0  0  0  0  0  0  0  0
    3.0331   -7.4400   27.6362 C   0  0  0  0  0  0  0  0  0  0  0  0
    5.4553   -8.5933   27.9644 C   0  0  0  0  0  0  0  0  0  0  0  0
   -2.3870  -12.8440   19.2512 C   0  0  0  0  0  0  0  0  0  0  0  0
    0.5331   -7.6964   16.2751 C   0  0  0  0  0  0  0  0  0  0  0  0
   -0.6740  -10.8737   18.0482 C   0  0  0  0  0  0  0  0  0  0  0  0
    5.6751  -10.5870   29.7637 O   0  0  0  0  0  0  0  0  0  0  0  0
    1.7612   -5.6483   26.7172 C   0  0  0  0  0  0  0  0  0  0  0  0
    0.2221   -9.8326   17.4055 C   0  0  0  0  0  0  0  0  0  0  0  0
    4.3850   -9.0730   28.6745 C   0  0  0  0  0  0  0  0  0  0  0  0
  1  7  4  0
  1 22  4  0
  2 17  4  0
  2 20  4  0
  2 28  4  0
  3  6  1  0
  3 19  1  0
  4 19  1  0
  4 26  1  0
  5 17  4  0
  5 18  4  0
  6 20  1  0
  6 26  1  0
  7 24  4  0
  8 15  4  0
  8 24  4  0
  9 14  4  0
  9 21  4  0
 10 12  4  0
 10 27  4  0
 11 12  4  0
 11 23  4  0
 13 23  4  0
 13 27  4  0
 14 20  4  0
 15 22  4  0
 16 18  4  0
 16 25  2  0
 16 28  4  0
 21 28  4  0
 24 27  1  0
M  END
$$$$

 Created by Python create_sdf_string function

 28 31  0  0  0  0  0  0  0  0999 V2000
   -1.0054  -13.0622   19.1198 C   0  0  0  0  0  0  0  0  0  0  0  0
    3.1478   -8.5360   28.5161 C   0  0  0  0  0  0  0  0  0  0  0  0
    0.5798   -7.1906   27.9330 C   0  0  0  0  0  0  0  0  0  0  0  0
    0.3978   -5.1561   26.6955 C   0  0  0  0  0  0  0  0  0  0  0  0
    2.3063  -10.0533   30.0125 C   0  0  0  0  0  0  0  0  0  0  0  0
    1.8591   -6.8254   27.4685 N   0  0  0  0  0  0  0  0  0  0  0  0
   -0.2167  -12.1055   18.5568 C   0  0  0  0  0  0  0  0  0  0  0  0
   -2.0661  -10.6994   18.1916 C   0  0  0  0  0  0  0  0  0  0  0  0
    5.2703   -7.5691   27.1123 C   0  0  0  0  0  0  0  0  0  0  0  0
    1.6204   -9.9887   17.2935 C   0  0  0  0  0  0  0  0  0  0  0  0
    1.8931   -7.9265   16.2047 C   0  0  0  0  0  0  0  0  0  0  0  0
    2.4396   -9.0801   16.7132 C   0  0  0  0  0  0  0  0  0  0  0  0
   -0.2575   -8.6234   16.8582 C   0  0  0  0  0  0  0  0  0  0  0  0
    4.0614   -7.0367   27.0106 N   0  0  0  0  0  0  0  0  0  0  0  0
   -2.9133  -11.6279   18.7578 C   0  0  0  0  0  0  0  0  0  0  0  0
    4.5688  -10.1291   29.5758 C   0  0  0  0  0  0  0  0  0  0  0  0
    2.1008   -9.0410   29.1852 N   0  0  0  0  0  0  0  0  0  0  0  0
    3.4829  -10.5697   30.2091 N   0  0  0  0  0  0  0  0  0  0  0  0
   -0.3363   -6.1172   27.5628 C   0  0  0  0  0  0  0  0  0  0  0  0
    3.0331   -7.4400   27.6362 C   0  0  0  0  0  0  0  0  0  0  0  0
    5.4553   -8.5933   27.9644 C   0  0  0  0  0  0  0  0  0  0  0  0
   -2.3870  -12.8440   19.2512 C   0  0  0  0  0  0  0  0  0  0  0  0
    0.5331   -7.6964   16.2751 C   0  0  0  0  0  0  0  0  0  0  0  0
   -0.6740  -10.8737   18.0482 C   0  0  0  0  0  0  0  0  0  0  0  0
    5.6751  -10.5870   29.7637 O   0  0  0  0  0  0  0  0  0  0  0  0
    1.7612   -5.6483   26.7172 C   0  0  0  0  0  0  0  0  0  0  0  0
    0.2221   -9.8326   17.4055 C   0  0  0  0  0  0  0  0  0  0  0  0
    4.3850   -9.0730   28.6745 C   0  0  0  0  0  0  0  0  0  0  0  0
  1  7  4  0
  1 22  4  0
  2 17  4  0
  2 20  4  0
  2 28  4  0
  3  6  1  0
  3 19  1  0
  4 19  1  0
  4 26  1  0
  5 17  4  0
  5 18  4  0
  6 20  1  0
  6 26  1  0
  7 24  4  0
  8 15  4  0
  8 24  4  0
  9 14  4  0
  9 21  4  0
 10 12  4  0
 10 27  4  0
 11 12  4  0
 11 23  4  0
 13 23  4  0
 13 27  4  0
 14 20  4  0
 15 22  4  0
 16 18  4  0
 16 25  2  0
 16 28  4  0
 21 28  4  0
 24 27  1  0
M  END
$$$$

 Created by Python create_sdf_string function

 28 31  0  0  0  0  0  0  0  0999 V2000
   -1.0054  -13.0622   19.1198 C   0  0  0  0  0  0  0  0  0  0  0  0
    3.1478   -8.5360   28.5161 C   0  0  0  0  0  0  0  0  0  0  0  0
    0.5798   -7.1906   27.9330 C   0  0  0  0  0  0  0  0  0  0  0  0
    0.3978   -5.1561   26.6955 C   0  0  0  0  0  0  0  0  0  0  0  0
    2.3063  -10.0533   30.0125 C   0  0  0  0  0  0  0  0  0  0  0  0
    1.8591   -6.8254   27.4685 N   0  0  0  0  0  0  0  0  0  0  0  0
   -0.2167  -12.1055   18.5568 C   0  0  0  0  0  0  0  0  0  0  0  0
   -2.0661  -10.6994   18.1916 C   0  0  0  0  0  0  0  0  0  0  0  0
    5.2703   -7.5691   27.1123 C   0  0  0  0  0  0  0  0  0  0  0  0
    1.6204   -9.9887   17.2935 C   0  0  0  0  0  0  0  0  0  0  0  0
    1.8931   -7.9265   16.2047 C   0  0  0  0  0  0  0  0  0  0  0  0
    2.4396   -9.0801   16.7132 C   0  0  0  0  0  0  0  0  0  0  0  0
   -0.2575   -8.6234   16.8582 C   0  0  0  0  0  0  0  0  0  0  0  0
    4.0614   -7.0367   27.0106 N   0  0  0  0  0  0  0  0  0  0  0  0
   -2.9133  -11.6279   18.7578 C   0  0  0  0  0  0  0  0  0  0  0  0
    4.5688  -10.1291   29.5758 C   0  0  0  0  0  0  0  0  0  0  0  0
    2.1008   -9.0410   29.1852 N   0  0  0  0  0  0  0  0  0  0  0  0
    3.4829  -10.5697   30.2091 N   0  0  0  0  0  0  0  0  0  0  0  0
   -0.3363   -6.1172   27.5628 C   0  0  0  0  0  0  0  0  0  0  0  0
    3.0331   -7.4400   27.6362 C   0  0  0  0  0  0  0  0  0  0  0  0
    5.4553   -8.5933   27.9644 C   0  0  0  0  0  0  0  0  0  0  0  0
   -2.3870  -12.8440   19.2512 C   0  0  0  0  0  0  0  0  0  0  0  0
    0.5331   -7.6964   16.2751 C   0  0  0  0  0  0  0  0  0  0  0  0
   -0.6740  -10.8737   18.0482 C   0  0  0  0  0  0  0  0  0  0  0  0
    5.6751  -10.5870   29.7637 O   0  0  0  0  0  0  0  0  0  0  0  0
    1.7612   -5.6483   26.7172 C   0  0  0  0  0  0  0  0  0  0  0  0
    0.2221   -9.8326   17.4055 C   0  0  0  0  0  0  0  0  0  0  0  0
    4.3850   -9.0730   28.6745 C   0  0  0  0  0  0  0  0  0  0  0  0
  1  7  4  0
  1 22  4  0
  2 17  4  0
  2 20  4  0
  2 28  4  0
  3  6  1  0
  3 19  1  0
  4 19  1  0
  4 26  1  0
  5 17  4  0
  5 18  4  0
  6 20  1  0
  6 26  1  0
  7 24  4  0
  8 15  4  0
  8 24  4  0
  9 14  4  0
  9 21  4  0
 10 12  4  0
 10 27  4  0
 11 12  4  0
 11 23  4  0
 13 23  4  0
 13 27  4  0
 14 20  4  0
 15 22  4  0
 16 18  4  0
 16 25  2  0
 16 28  4  0
 21 28  4  0
 24 27  1  0
M  END
$$$$

 Created by Python create_sdf_string function

 28 31  0  0  0  0  0  0  0  0999 V2000
   -1.0054  -13.0622   19.1198 C   0  0  0  0  0  0  0  0  0  0  0  0
    3.1478   -8.5360   28.5161 C   0  0  0  0  0  0  0  0  0  0  0  0
    0.5798   -7.1906   27.9330 C   0  0  0  0  0  0  0  0  0  0  0  0
    0.3978   -5.1561   26.6955 C   0  0  0  0  0  0  0  0  0  0  0  0
    2.3063  -10.0533   30.0125 C   0  0  0  0  0  0  0  0  0  0  0  0
    1.8591   -6.8254   27.4685 N   0  0  0  0  0  0  0  0  0  0  0  0
   -0.2167  -12.1055   18.5568 C   0  0  0  0  0  0  0  0  0  0  0  0
   -2.0661  -10.6994   18.1916 C   0  0  0  0  0  0  0  0  0  0  0  0
    5.2703   -7.5691   27.1123 C   0  0  0  0  0  0  0  0  0  0  0  0
    1.6204   -9.9887   17.2935 C   0  0  0  0  0  0  0  0  0  0  0  0
    1.8931   -7.9265   16.2047 C   0  0  0  0  0  0  0  0  0  0  0  0
    2.4396   -9.0801   16.7132 C   0  0  0  0  0  0  0  0  0  0  0  0
   -0.2575   -8.6234   16.8582 C   0  0  0  0  0  0  0  0  0  0  0  0
    4.0614   -7.0367   27.0106 N   0  0  0  0  0  0  0  0  0  0  0  0
   -2.9133  -11.6279   18.7578 C   0  0  0  0  0  0  0  0  0  0  0  0
    4.5688  -10.1291   29.5758 C   0  0  0  0  0  0  0  0  0  0  0  0
    2.1008   -9.0410   29.1852 N   0  0  0  0  0  0  0  0  0  0  0  0
    3.4829  -10.5697   30.2091 N   0  0  0  0  0  0  0  0  0  0  0  0
   -0.3363   -6.1172   27.5628 C   0  0  0  0  0  0  0  0  0  0  0  0
    3.0331   -7.4400   27.6362 C   0  0  0  0  0  0  0  0  0  0  0  0
    5.4553   -8.5933   27.9644 C   0  0  0  0  0  0  0  0  0  0  0  0
   -2.3870  -12.8440   19.2512 C   0  0  0  0  0  0  0  0  0  0  0  0
    0.5331   -7.6964   16.2751 C   0  0  0  0  0  0  0  0  0  0  0  0
   -0.6740  -10.8737   18.0482 C   0  0  0  0  0  0  0  0  0  0  0  0
    5.6751  -10.5870   29.7637 O   0  0  0  0  0  0  0  0  0  0  0  0
    1.7612   -5.6483   26.7172 C   0  0  0  0  0  0  0  0  0  0  0  0
    0.2221   -9.8326   17.4055 C   0  0  0  0  0  0  0  0  0  0  0  0
    4.3850   -9.0730   28.6745 C   0  0  0  0  0  0  0  0  0  0  0  0
  1  7  4  0
  1 22  4  0
  2 17  4  0
  2 20  4  0
  2 28  4  0
  3  6  1  0
  3 19  1  0
  4 19  1  0
  4 26  1  0
  5 17  4  0
  5 18  4  0
  6 20  1  0
  6 26  1  0
  7 24  4  0
  8 15  4  0
  8 24  4  0
  9 14  4  0
  9 21  4  0
 10 12  4  0
 10 27  4  0
 11 12  4  0
 11 23  4  0
 13 23  4  0
 13 27  4  0
 14 20  4  0
 15 22  4  0
 16 18  4  0
 16 25  2  0
 16 28  4  0
 21 28  4  0
 24 27  1  0
M  END
$$$$

 Created by Python create_sdf_string function

 28 31  0  0  0  0  0  0  0  0999 V2000
   -1.0054  -13.0622   19.1198 C   0  0  0  0  0  0  0  0  0  0  0  0
    3.1478   -8.5360   28.5161 C   0  0  0  0  0  0  0  0  0  0  0  0
    0.5798   -7.1906   27.9330 C   0  0  0  0  0  0  0  0  0  0  0  0
    0.3978   -5.1561   26.6955 C   0  0  0  0  0  0  0  0  0  0  0  0
    2.3063  -10.0533   30.0125 C   0  0  0  0  0  0  0  0  0  0  0  0
    1.8591   -6.8254   27.4685 N   0  0  0  0  0  0  0  0  0  0  0  0
   -0.2167  -12.1055   18.5568 C   0  0  0  0  0  0  0  0  0  0  0  0
   -2.0661  -10.6994   18.1916 C   0  0  0  0  0  0  0  0  0  0  0  0
    5.2703   -7.5691   27.1123 C   0  0  0  0  0  0  0  0  0  0  0  0
    1.6204   -9.9887   17.2935 C   0  0  0  0  0  0  0  0  0  0  0  0
    1.8931   -7.9265   16.2047 C   0  0  0  0  0  0  0  0  0  0  0  0
    2.4396   -9.0801   16.7132 C   0  0  0  0  0  0  0  0  0  0  0  0
   -0.2575   -8.6234   16.8582 C   0  0  0  0  0  0  0  0  0  0  0  0
    4.0614   -7.0367   27.0106 N   0  0  0  0  0  0  0  0  0  0  0  0
   -2.9133  -11.6279   18.7578 C   0  0  0  0  0  0  0  0  0  0  0  0
    4.5688  -10.1291   29.5758 C   0  0  0  0  0  0  0  0  0  0  0  0
    2.1008   -9.0410   29.1852 N   0  0  0  0  0  0  0  0  0  0  0  0
    3.4829  -10.5697   30.2091 N   0  0  0  0  0  0  0  0  0  0  0  0
   -0.3363   -6.1172   27.5628 C   0  0  0  0  0  0  0  0  0  0  0  0
    3.0331   -7.4400   27.6362 C   0  0  0  0  0  0  0  0  0  0  0  0
    5.4553   -8.5933   27.9644 C   0  0  0  0  0  0  0  0  0  0  0  0
   -2.3870  -12.8440   19.2512 C   0  0  0  0  0  0  0  0  0  0  0  0
    0.5331   -7.6964   16.2751 C   0  0  0  0  0  0  0  0  0  0  0  0
   -0.6740  -10.8737   18.0482 C   0  0  0  0  0  0  0  0  0  0  0  0
    5.6751  -10.5870   29.7637 O   0  0  0  0  0  0  0  0  0  0  0  0
    1.7612   -5.6483   26.7172 C   0  0  0  0  0  0  0  0  0  0  0  0
    0.2221   -9.8326   17.4055 C   0  0  0  0  0  0  0  0  0  0  0  0
    4.3850   -9.0730   28.6745 C   0  0  0  0  0  0  0  0  0  0  0  0
  1  7  4  0
  1 22  4  0
  2 17  4  0
  2 20  4  0
  2 28  4  0
  3  6  1  0
  3 19  1  0
  4 19  1  0
  4 26  1  0
  5 17  4  0
  5 18  4  0
  6 20  1  0
  6 26  1  0
  7 24  4  0
  8 15  4  0
  8 24  4  0
  9 14  4  0
  9 21  4  0
 10 12  4  0
 10 27  4  0
 11 12  4  0
 11 23  4  0
 13 23  4  0
 13 27  4  0
 14 20  4  0
 15 22  4  0
 16 18  4  0
 16 25  2  0
 16 28  4  0
 21 28  4  0
 24 27  1  0
M  END
$$$$

 Created by Python create_sdf_string function

 28 31  0  0  0  0  0  0  0  0999 V2000
   -1.0054  -13.0622   19.1198 C   0  0  0  0  0  0  0  0  0  0  0  0
    3.1478   -8.5360   28.5161 C   0  0  0  0  0  0  0  0  0  0  0  0
    0.5798   -7.1906   27.9330 C   0  0  0  0  0  0  0  0  0  0  0  0
    0.3978   -5.1561   26.6955 C   0  0  0  0  0  0  0  0  0  0  0  0
    2.3063  -10.0533   30.0125 C   0  0  0  0  0  0  0  0  0  0  0  0
    1.8591   -6.8254   27.4685 N   0  0  0  0  0  0  0  0  0  0  0  0
   -0.2167  -12.1055   18.5568 C   0  0  0  0  0  0  0  0  0  0  0  0
   -2.0661  -10.6994   18.1916 C   0  0  0  0  0  0  0  0  0  0  0  0
    5.2703   -7.5691   27.1123 C   0  0  0  0  0  0  0  0  0  0  0  0
    1.6204   -9.9887   17.2935 C   0  0  0  0  0  0  0  0  0  0  0  0
    1.8931   -7.9265   16.2047 C   0  0  0  0  0  0  0  0  0  0  0  0
    2.4396   -9.0801   16.7132 C   0  0  0  0  0  0  0  0  0  0  0  0
   -0.2575   -8.6234   16.8582 C   0  0  0  0  0  0  0  0  0  0  0  0
    4.0614   -7.0367   27.0106 N   0  0  0  0  0  0  0  0  0  0  0  0
   -2.9133  -11.6279   18.7578 C   0  0  0  0  0  0  0  0  0  0  0  0
    4.5688  -10.1291   29.5758 C   0  0  0  0  0  0  0  0  0  0  0  0
    2.1008   -9.0410   29.1852 N   0  0  0  0  0  0  0  0  0  0  0  0
    3.4829  -10.5697   30.2091 N   0  0  0  0  0  0  0  0  0  0  0  0
   -0.3363   -6.1172   27.5628 C   0  0  0  0  0  0  0  0  0  0  0  0
    3.0331   -7.4400   27.6362 C   0  0  0  0  0  0  0  0  0  0  0  0
    5.4553   -8.5933   27.9644 C   0  0  0  0  0  0  0  0  0  0  0  0
   -2.3870  -12.8440   19.2512 C   0  0  0  0  0  0  0  0  0  0  0  0
    0.5331   -7.6964   16.2751 C   0  0  0  0  0  0  0  0  0  0  0  0
   -0.6740  -10.8737   18.0482 C   0  0  0  0  0  0  0  0  0  0  0  0
    5.6751  -10.5870   29.7637 O   0  0  0  0  0  0  0  0  0  0  0  0
    1.7612   -5.6483   26.7172 C   0  0  0  0  0  0  0  0  0  0  0  0
    0.2221   -9.8326   17.4055 C   0  0  0  0  0  0  0  0  0  0  0  0
    4.3850   -9.0730   28.6745 C   0  0  0  0  0  0  0  0  0  0  0  0
  1  7  4  0
  1 22  4  0
  2 17  4  0
  2 20  4  0
  2 28  4  0
  3  6  1  0
  3 19  1  0
  4 19  1  0
  4 26  1  0
  5 17  4  0
  5 18  4  0
  6 20  1  0
  6 26  1  0
  7 24  4  0
  8 15  4  0
  8 24  4  0
  9 14  4  0
  9 21  4  0
 10 12  4  0
 10 27  4  0
 11 12  4  0
 11 23  4  0
 13 23  4  0
 13 27  4  0
 14 20  4  0
 15 22  4  0
 16 18  4  0
 16 25  2  0
 16 28  4  0
 21 28  4  0
 24 27  1  0
M  END
$$$$

 Created by Python create_sdf_string function

 28 31  0  0  0  0  0  0  0  0999 V2000
   -1.0054  -13.0622   19.1198 C   0  0  0  0  0  0  0  0  0  0  0  0
    3.1478   -8.5360   28.5161 C   0  0  0  0  0  0  0  0  0  0  0  0
    0.5798   -7.1906   27.9330 C   0  0  0  0  0  0  0  0  0  0  0  0
    0.3978   -5.1561   26.6955 C   0  0  0  0  0  0  0  0  0  0  0  0
    2.3063  -10.0533   30.0125 C   0  0  0  0  0  0  0  0  0  0  0  0
    1.8591   -6.8254   27.4685 N   0  0  0  0  0  0  0  0  0  0  0  0
   -0.2167  -12.1055   18.5568 C   0  0  0  0  0  0  0  0  0  0  0  0
   -2.0661  -10.6994   18.1916 C   0  0  0  0  0  0  0  0  0  0  0  0
    5.2703   -7.5691   27.1123 C   0  0  0  0  0  0  0  0  0  0  0  0
    1.6204   -9.9887   17.2935 C   0  0  0  0  0  0  0  0  0  0  0  0
    1.8931   -7.9265   16.2047 C   0  0  0  0  0  0  0  0  0  0  0  0
    2.4396   -9.0801   16.7132 C   0  0  0  0  0  0  0  0  0  0  0  0
   -0.2575   -8.6234   16.8582 C   0  0  0  0  0  0  0  0  0  0  0  0
    4.0614   -7.0367   27.0106 N   0  0  0  0  0  0  0  0  0  0  0  0
   -2.9133  -11.6279   18.7578 C   0  0  0  0  0  0  0  0  0  0  0  0
    4.5688  -10.1291   29.5758 C   0  0  0  0  0  0  0  0  0  0  0  0
    2.1008   -9.0410   29.1852 N   0  0  0  0  0  0  0  0  0  0  0  0
    3.4829  -10.5697   30.2091 N   0  0  0  0  0  0  0  0  0  0  0  0
   -0.3363   -6.1172   27.5628 C   0  0  0  0  0  0  0  0  0  0  0  0
    3.0331   -7.4400   27.6362 C   0  0  0  0  0  0  0  0  0  0  0  0
    5.4553   -8.5933   27.9644 C   0  0  0  0  0  0  0  0  0  0  0  0
   -2.3870  -12.8440   19.2512 C   0  0  0  0  0  0  0  0  0  0  0  0
    0.5331   -7.6964   16.2751 C   0  0  0  0  0  0  0  0  0  0  0  0
   -0.6740  -10.8737   18.0482 C   0  0  0  0  0  0  0  0  0  0  0  0
    5.6751  -10.5870   29.7637 O   0  0  0  0  0  0  0  0  0  0  0  0
    1.7612   -5.6483   26.7172 C   0  0  0  0  0  0  0  0  0  0  0  0
    0.2221   -9.8326   17.4055 C   0  0  0  0  0  0  0  0  0  0  0  0
    4.3850   -9.0730   28.6745 C   0  0  0  0  0  0  0  0  0  0  0  0
  1  7  4  0
  1 22  4  0
  2 17  4  0
  2 20  4  0
  2 28  4  0
  3  6  1  0
  3 19  1  0
  4 19  1  0
  4 26  1  0
  5 17  4  0
  5 18  4  0
  6 20  1  0
  6 26  1  0
  7 24  4  0
  8 15  4  0
  8 24  4  0
  9 14  4  0
  9 21  4  0
 10 12  4  0
 10 27  4  0
 11 12  4  0
 11 23  4  0
 13 23  4  0
 13 27  4  0
 14 20  4  0
 15 22  4  0
 16 18  4  0
 16 25  2  0
 16 28  4  0
 21 28  4  0
 24 27  1  0
M  END
$$$$

 Created by Python create_sdf_string function

 28 31  0  0  0  0  0  0  0  0999 V2000
   -1.0054  -13.0622   19.1198 C   0  0  0  0  0  0  0  0  0  0  0  0
    3.1478   -8.5360   28.5161 C   0  0  0  0  0  0  0  0  0  0  0  0
    0.5798   -7.1906   27.9330 C   0  0  0  0  0  0  0  0  0  0  0  0
    0.3978   -5.1561   26.6955 C   0  0  0  0  0  0  0  0  0  0  0  0
    2.3063  -10.0533   30.0125 C   0  0  0  0  0  0  0  0  0  0  0  0
    1.8591   -6.8254   27.4685 N   0  0  0  0  0  0  0  0  0  0  0  0
   -0.2167  -12.1055   18.5568 C   0  0  0  0  0  0  0  0  0  0  0  0
   -2.0661  -10.6994   18.1916 C   0  0  0  0  0  0  0  0  0  0  0  0
    5.2703   -7.5691   27.1123 C   0  0  0  0  0  0  0  0  0  0  0  0
    1.6204   -9.9887   17.2935 C   0  0  0  0  0  0  0  0  0  0  0  0
    1.8931   -7.9265   16.2047 C   0  0  0  0  0  0  0  0  0  0  0  0
    2.4396   -9.0801   16.7132 C   0  0  0  0  0  0  0  0  0  0  0  0
   -0.2575   -8.6234   16.8582 C   0  0  0  0  0  0  0  0  0  0  0  0
    4.0614   -7.0367   27.0106 N   0  0  0  0  0  0  0  0  0  0  0  0
   -2.9133  -11.6279   18.7578 C   0  0  0  0  0  0  0  0  0  0  0  0
    4.5688  -10.1291   29.5758 C   0  0  0  0  0  0  0  0  0  0  0  0
    2.1008   -9.0410   29.1852 N   0  0  0  0  0  0  0  0  0  0  0  0
    3.4829  -10.5697   30.2091 N   0  0  0  0  0  0  0  0  0  0  0  0
   -0.3363   -6.1172   27.5628 C   0  0  0  0  0  0  0  0  0  0  0  0
    3.0331   -7.4400   27.6362 C   0  0  0  0  0  0  0  0  0  0  0  0
    5.4553   -8.5933   27.9644 C   0  0  0  0  0  0  0  0  0  0  0  0
   -2.3870  -12.8440   19.2512 C   0  0  0  0  0  0  0  0  0  0  0  0
    0.5331   -7.6964   16.2751 C   0  0  0  0  0  0  0  0  0  0  0  0
   -0.6740  -10.8737   18.0482 C   0  0  0  0  0  0  0  0  0  0  0  0
    5.6751  -10.5870   29.7637 O   0  0  0  0  0  0  0  0  0  0  0  0
    1.7612   -5.6483   26.7172 C   0  0  0  0  0  0  0  0  0  0  0  0
    0.2221   -9.8326   17.4055 C   0  0  0  0  0  0  0  0  0  0  0  0
    4.3850   -9.0730   28.6745 C   0  0  0  0  0  0  0  0  0  0  0  0
  1  7  4  0
  1 22  4  0
  2 17  4  0
  2 20  4  0
  2 28  4  0
  3  6  1  0
  3 19  1  0
  4 19  1  0
  4 26  1  0
  5 17  4  0
  5 18  4  0
  6 20  1  0
  6 26  1  0
  7 24  4  0
  8 15  4  0
  8 24  4  0
  9 14  4  0
  9 21  4  0
 10 12  4  0
 10 27  4  0
 11 12  4  0
 11 23  4  0
 13 23  4  0
 13 27  4  0
 14 20  4  0
 15 22  4  0
 16 18  4  0
 16 25  2  0
 16 28  4  0
 21 28  4  0
 24 27  1  0
M  END
$$$$

 Created by Python create_sdf_string function

 28 31  0  0  0  0  0  0  0  0999 V2000
   -1.0054  -13.0622   19.1198 C   0  0  0  0  0  0  0  0  0  0  0  0
    3.1478   -8.5360   28.5161 C   0  0  0  0  0  0  0  0  0  0  0  0
    0.5798   -7.1906   27.9330 C   0  0  0  0  0  0  0  0  0  0  0  0
    0.3978   -5.1561   26.6955 C   0  0  0  0  0  0  0  0  0  0  0  0
    2.3063  -10.0533   30.0125 C   0  0  0  0  0  0  0  0  0  0  0  0
    1.8591   -6.8254   27.4685 N   0  0  0  0  0  0  0  0  0  0  0  0
   -0.2167  -12.1055   18.5568 C   0  0  0  0  0  0  0  0  0  0  0  0
   -2.0661  -10.6994   18.1916 C   0  0  0  0  0  0  0  0  0  0  0  0
    5.2703   -7.5691   27.1123 C   0  0  0  0  0  0  0  0  0  0  0  0
    1.6204   -9.9887   17.2935 C   0  0  0  0  0  0  0  0  0  0  0  0
    1.8931   -7.9265   16.2047 C   0  0  0  0  0  0  0  0  0  0  0  0
    2.4396   -9.0801   16.7132 C   0  0  0  0  0  0  0  0  0  0  0  0
   -0.2575   -8.6234   16.8582 C   0  0  0  0  0  0  0  0  0  0  0  0
    4.0614   -7.0367   27.0106 N   0  0  0  0  0  0  0  0  0  0  0  0
   -2.9133  -11.6279   18.7578 C   0  0  0  0  0  0  0  0  0  0  0  0
    4.5688  -10.1291   29.5758 C   0  0  0  0  0  0  0  0  0  0  0  0
    2.1008   -9.0410   29.1852 N   0  0  0  0  0  0  0  0  0  0  0  0
    3.4829  -10.5697   30.2091 N   0  0  0  0  0  0  0  0  0  0  0  0
   -0.3363   -6.1172   27.5628 C   0  0  0  0  0  0  0  0  0  0  0  0
    3.0331   -7.4400   27.6362 C   0  0  0  0  0  0  0  0  0  0  0  0
    5.4553   -8.5933   27.9644 C   0  0  0  0  0  0  0  0  0  0  0  0
   -2.3870  -12.8440   19.2512 C   0  0  0  0  0  0  0  0  0  0  0  0
    0.5331   -7.6964   16.2751 C   0  0  0  0  0  0  0  0  0  0  0  0
   -0.6740  -10.8737   18.0482 C   0  0  0  0  0  0  0  0  0  0  0  0
    5.6751  -10.5870   29.7637 O   0  0  0  0  0  0  0  0  0  0  0  0
    1.7612   -5.6483   26.7172 C   0  0  0  0  0  0  0  0  0  0  0  0
    0.2221   -9.8326   17.4055 C   0  0  0  0  0  0  0  0  0  0  0  0
    4.3850   -9.0730   28.6745 C   0  0  0  0  0  0  0  0  0  0  0  0
  1  7  4  0
  1 22  4  0
  2 17  4  0
  2 20  4  0
  2 28  4  0
  3  6  1  0
  3 19  1  0
  4 19  1  0
  4 26  1  0
  5 17  4  0
  5 18  4  0
  6 20  1  0
  6 26  1  0
  7 24  4  0
  8 15  4  0
  8 24  4  0
  9 14  4  0
  9 21  4  0
 10 12  4  0
 10 27  4  0
 11 12  4  0
 11 23  4  0
 13 23  4  0
 13 27  4  0
 14 20  4  0
 15 22  4  0
 16 18  4  0
 16 25  2  0
 16 28  4  0
 21 28  4  0
 24 27  1  0
M  END
$$$$

 Created by Python create_sdf_string function

 28 31  0  0  0  0  0  0  0  0999 V2000
   -1.0054  -13.0622   19.1198 C   0  0  0  0  0  0  0  0  0  0  0  0
    3.1478   -8.5360   28.5161 C   0  0  0  0  0  0  0  0  0  0  0  0
    0.5798   -7.1906   27.9330 C   0  0  0  0  0  0  0  0  0  0  0  0
    0.3978   -5.1561   26.6955 C   0  0  0  0  0  0  0  0  0  0  0  0
    2.3063  -10.0533   30.0125 C   0  0  0  0  0  0  0  0  0  0  0  0
    1.8591   -6.8254   27.4685 N   0  0  0  0  0  0  0  0  0  0  0  0
   -0.2167  -12.1055   18.5568 C   0  0  0  0  0  0  0  0  0  0  0  0
   -2.0661  -10.6994   18.1916 C   0  0  0  0  0  0  0  0  0  0  0  0
    5.2703   -7.5691   27.1123 C   0  0  0  0  0  0  0  0  0  0  0  0
    1.6204   -9.9887   17.2935 C   0  0  0  0  0  0  0  0  0  0  0  0
    1.8931   -7.9265   16.2047 C   0  0  0  0  0  0  0  0  0  0  0  0
    2.4396   -9.0801   16.7132 C   0  0  0  0  0  0  0  0  0  0  0  0
   -0.2575   -8.6234   16.8582 C   0  0  0  0  0  0  0  0  0  0  0  0
    4.0614   -7.0367   27.0106 N   0  0  0  0  0  0  0  0  0  0  0  0
   -2.9133  -11.6279   18.7578 C   0  0  0  0  0  0  0  0  0  0  0  0
    4.5688  -10.1291   29.5758 C   0  0  0  0  0  0  0  0  0  0  0  0
    2.1008   -9.0410   29.1852 N   0  0  0  0  0  0  0  0  0  0  0  0
    3.4829  -10.5697   30.2091 N   0  0  0  0  0  0  0  0  0  0  0  0
   -0.3363   -6.1172   27.5628 C   0  0  0  0  0  0  0  0  0  0  0  0
    3.0331   -7.4400   27.6362 C   0  0  0  0  0  0  0  0  0  0  0  0
    5.4553   -8.5933   27.9644 C   0  0  0  0  0  0  0  0  0  0  0  0
   -2.3870  -12.8440   19.2512 C   0  0  0  0  0  0  0  0  0  0  0  0
    0.5331   -7.6964   16.2751 C   0  0  0  0  0  0  0  0  0  0  0  0
   -0.6740  -10.8737   18.0482 C   0  0  0  0  0  0  0  0  0  0  0  0
    5.6751  -10.5870   29.7637 O   0  0  0  0  0  0  0  0  0  0  0  0
    1.7612   -5.6483   26.7172 C   0  0  0  0  0  0  0  0  0  0  0  0
    0.2221   -9.8326   17.4055 C   0  0  0  0  0  0  0  0  0  0  0  0
    4.3850   -9.0730   28.6745 C   0  0  0  0  0  0  0  0  0  0  0  0
  1  7  4  0
  1 22  4  0
  2 17  4  0
  2 20  4  0
  2 28  4  0
  3  6  1  0
  3 19  1  0
  4 19  1  0
  4 26  1  0
  5 17  4  0
  5 18  4  0
  6 20  1  0
  6 26  1  0
  7 24  4  0
  8 15  4  0
  8 24  4  0
  9 14  4  0
  9 21  4  0
 10 12  4  0
 10 27  4  0
 11 12  4  0
 11 23  4  0
 13 23  4  0
 13 27  4  0
 14 20  4  0
 15 22  4  0
 16 18  4  0
 16 25  2  0
 16 28  4  0
 21 28  4  0
 24 27  1  0
M  END
$$$$

 Created by Python create_sdf_string function

 28 31  0  0  0  0  0  0  0  0999 V2000
   -1.0054  -13.0622   19.1198 C   0  0  0  0  0  0  0  0  0  0  0  0
    3.1478   -8.5360   28.5161 C   0  0  0  0  0  0  0  0  0  0  0  0
    0.5798   -7.1906   27.9330 C   0  0  0  0  0  0  0  0  0  0  0  0
    0.3978   -5.1561   26.6955 C   0  0  0  0  0  0  0  0  0  0  0  0
    2.3063  -10.0533   30.0125 C   0  0  0  0  0  0  0  0  0  0  0  0
    1.8591   -6.8254   27.4685 N   0  0  0  0  0  0  0  0  0  0  0  0
   -0.2167  -12.1055   18.5568 C   0  0  0  0  0  0  0  0  0  0  0  0
   -2.0661  -10.6994   18.1916 C   0  0  0  0  0  0  0  0  0  0  0  0
    5.2703   -7.5691   27.1123 C   0  0  0  0  0  0  0  0  0  0  0  0
    1.6204   -9.9887   17.2935 C   0  0  0  0  0  0  0  0  0  0  0  0
    1.8931   -7.9265   16.2047 C   0  0  0  0  0  0  0  0  0  0  0  0
    2.4396   -9.0801   16.7132 C   0  0  0  0  0  0  0  0  0  0  0  0
   -0.2575   -8.6234   16.8582 C   0  0  0  0  0  0  0  0  0  0  0  0
    4.0614   -7.0367   27.0106 N   0  0  0  0  0  0  0  0  0  0  0  0
   -2.9133  -11.6279   18.7578 C   0  0  0  0  0  0  0  0  0  0  0  0
    4.5688  -10.1291   29.5758 C   0  0  0  0  0  0  0  0  0  0  0  0
    2.1008   -9.0410   29.1852 N   0  0  0  0  0  0  0  0  0  0  0  0
    3.4829  -10.5697   30.2091 N   0  0  0  0  0  0  0  0  0  0  0  0
   -0.3363   -6.1172   27.5628 C   0  0  0  0  0  0  0  0  0  0  0  0
    3.0331   -7.4400   27.6362 C   0  0  0  0  0  0  0  0  0  0  0  0
    5.4553   -8.5933   27.9644 C   0  0  0  0  0  0  0  0  0  0  0  0
   -2.3870  -12.8440   19.2512 C   0  0  0  0  0  0  0  0  0  0  0  0
    0.5331   -7.6964   16.2751 C   0  0  0  0  0  0  0  0  0  0  0  0
   -0.6740  -10.8737   18.0482 C   0  0  0  0  0  0  0  0  0  0  0  0
    5.6751  -10.5870   29.7637 O   0  0  0  0  0  0  0  0  0  0  0  0
    1.7612   -5.6483   26.7172 C   0  0  0  0  0  0  0  0  0  0  0  0
    0.2221   -9.8326   17.4055 C   0  0  0  0  0  0  0  0  0  0  0  0
    4.3850   -9.0730   28.6745 C   0  0  0  0  0  0  0  0  0  0  0  0
  1  7  4  0
  1 22  4  0
  2 17  4  0
  2 20  4  0
  2 28  4  0
  3  6  1  0
  3 19  1  0
  4 19  1  0
  4 26  1  0
  5 17  4  0
  5 18  4  0
  6 20  1  0
  6 26  1  0
  7 24  4  0
  8 15  4  0
  8 24  4  0
  9 14  4  0
  9 21  4  0
 10 12  4  0
 10 27  4  0
 11 12  4  0
 11 23  4  0
 13 23  4  0
 13 27  4  0
 14 20  4  0
 15 22  4  0
 16 18  4  0
 16 25  2  0
 16 28  4  0
 21 28  4  0
 24 27  1  0
M  END
$$$$

 Created by Python create_sdf_string function

 28 31  0  0  0  0  0  0  0  0999 V2000
   -1.0054  -13.0622   19.1198 C   0  0  0  0  0  0  0  0  0  0  0  0
    3.1478   -8.5360   28.5161 C   0  0  0  0  0  0  0  0  0  0  0  0
    0.5798   -7.1906   27.9330 C   0  0  0  0  0  0  0  0  0  0  0  0
    0.3978   -5.1561   26.6955 C   0  0  0  0  0  0  0  0  0  0  0  0
    2.3063  -10.0533   30.0125 C   0  0  0  0  0  0  0  0  0  0  0  0
    1.8591   -6.8254   27.4685 N   0  0  0  0  0  0  0  0  0  0  0  0
   -0.2167  -12.1055   18.5568 C   0  0  0  0  0  0  0  0  0  0  0  0
   -2.0661  -10.6994   18.1916 C   0  0  0  0  0  0  0  0  0  0  0  0
    5.2703   -7.5691   27.1123 C   0  0  0  0  0  0  0  0  0  0  0  0
    1.6204   -9.9887   17.2935 C   0  0  0  0  0  0  0  0  0  0  0  0
    1.8931   -7.9265   16.2047 C   0  0  0  0  0  0  0  0  0  0  0  0
    2.4396   -9.0801   16.7132 C   0  0  0  0  0  0  0  0  0  0  0  0
   -0.2575   -8.6234   16.8582 C   0  0  0  0  0  0  0  0  0  0  0  0
    4.0614   -7.0367   27.0106 N   0  0  0  0  0  0  0  0  0  0  0  0
   -2.9133  -11.6279   18.7578 C   0  0  0  0  0  0  0  0  0  0  0  0
    4.5688  -10.1291   29.5758 C   0  0  0  0  0  0  0  0  0  0  0  0
    2.1008   -9.0410   29.1852 N   0  0  0  0  0  0  0  0  0  0  0  0
    3.4829  -10.5697   30.2091 N   0  0  0  0  0  0  0  0  0  0  0  0
   -0.3363   -6.1172   27.5628 C   0  0  0  0  0  0  0  0  0  0  0  0
    3.0331   -7.4400   27.6362 C   0  0  0  0  0  0  0  0  0  0  0  0
    5.4553   -8.5933   27.9644 C   0  0  0  0  0  0  0  0  0  0  0  0
   -2.3870  -12.8440   19.2512 C   0  0  0  0  0  0  0  0  0  0  0  0
    0.5331   -7.6964   16.2751 C   0  0  0  0  0  0  0  0  0  0  0  0
   -0.6740  -10.8737   18.0482 C   0  0  0  0  0  0  0  0  0  0  0  0
    5.6751  -10.5870   29.7637 O   0  0  0  0  0  0  0  0  0  0  0  0
    1.7612   -5.6483   26.7172 C   0  0  0  0  0  0  0  0  0  0  0  0
    0.2221   -9.8326   17.4055 C   0  0  0  0  0  0  0  0  0  0  0  0
    4.3850   -9.0730   28.6745 C   0  0  0  0  0  0  0  0  0  0  0  0
  1  7  4  0
  1 22  4  0
  2 17  4  0
  2 20  4  0
  2 28  4  0
  3  6  1  0
  3 19  1  0
  4 19  1  0
  4 26  1  0
  5 17  4  0
  5 18  4  0
  6 20  1  0
  6 26  1  0
  7 24  4  0
  8 15  4  0
  8 24  4  0
  9 14  4  0
  9 21  4  0
 10 12  4  0
 10 27  4  0
 11 12  4  0
 11 23  4  0
 13 23  4  0
 13 27  4  0
 14 20  4  0
 15 22  4  0
 16 18  4  0
 16 25  2  0
 16 28  4  0
 21 28  4  0
 24 27  1  0
M  END
$$$$

 Created by Python create_sdf_string function

 28 31  0  0  0  0  0  0  0  0999 V2000
   -1.0054  -13.0622   19.1198 C   0  0  0  0  0  0  0  0  0  0  0  0
    3.1478   -8.5360   28.5161 C   0  0  0  0  0  0  0  0  0  0  0  0
    0.5798   -7.1906   27.9330 C   0  0  0  0  0  0  0  0  0  0  0  0
    0.3978   -5.1561   26.6955 C   0  0  0  0  0  0  0  0  0  0  0  0
    2.3063  -10.0533   30.0125 C   0  0  0  0  0  0  0  0  0  0  0  0
    1.8591   -6.8254   27.4685 N   0  0  0  0  0  0  0  0  0  0  0  0
   -0.2167  -12.1055   18.5568 C   0  0  0  0  0  0  0  0  0  0  0  0
   -2.0661  -10.6994   18.1916 C   0  0  0  0  0  0  0  0  0  0  0  0
    5.2703   -7.5691   27.1123 C   0  0  0  0  0  0  0  0  0  0  0  0
    1.6204   -9.9887   17.2935 C   0  0  0  0  0  0  0  0  0  0  0  0
    1.8931   -7.9265   16.2047 C   0  0  0  0  0  0  0  0  0  0  0  0
    2.4396   -9.0801   16.7132 C   0  0  0  0  0  0  0  0  0  0  0  0
   -0.2575   -8.6234   16.8582 C   0  0  0  0  0  0  0  0  0  0  0  0
    4.0614   -7.0367   27.0106 N   0  0  0  0  0  0  0  0  0  0  0  0
   -2.9133  -11.6279   18.7578 C   0  0  0  0  0  0  0  0  0  0  0  0
    4.5688  -10.1291   29.5758 C   0  0  0  0  0  0  0  0  0  0  0  0
    2.1008   -9.0410   29.1852 N   0  0  0  0  0  0  0  0  0  0  0  0
    3.4829  -10.5697   30.2091 N   0  0  0  0  0  0  0  0  0  0  0  0
   -0.3363   -6.1172   27.5628 C   0  0  0  0  0  0  0  0  0  0  0  0
    3.0331   -7.4400   27.6362 C   0  0  0  0  0  0  0  0  0  0  0  0
    5.4553   -8.5933   27.9644 C   0  0  0  0  0  0  0  0  0  0  0  0
   -2.3870  -12.8440   19.2512 C   0  0  0  0  0  0  0  0  0  0  0  0
    0.5331   -7.6964   16.2751 C   0  0  0  0  0  0  0  0  0  0  0  0
   -0.6740  -10.8737   18.0482 C   0  0  0  0  0  0  0  0  0  0  0  0
    5.6751  -10.5870   29.7637 O   0  0  0  0  0  0  0  0  0  0  0  0
    1.7612   -5.6483   26.7172 C   0  0  0  0  0  0  0  0  0  0  0  0
    0.2221   -9.8326   17.4055 C   0  0  0  0  0  0  0  0  0  0  0  0
    4.3850   -9.0730   28.6745 C   0  0  0  0  0  0  0  0  0  0  0  0
  1  7  4  0
  1 22  4  0
  2 17  4  0
  2 20  4  0
  2 28  4  0
  3  6  1  0
  3 19  1  0
  4 19  1  0
  4 26  1  0
  5 17  4  0
  5 18  4  0
  6 20  1  0
  6 26  1  0
  7 24  4  0
  8 15  4  0
  8 24  4  0
  9 14  4  0
  9 21  4  0
 10 12  4  0
 10 27  4  0
 11 12  4  0
 11 23  4  0
 13 23  4  0
 13 27  4  0
 14 20  4  0
 15 22  4  0
 16 18  4  0
 16 25  2  0
 16 28  4  0
 21 28  4  0
 24 27  1  0
M  END
$$$$

 Created by Python create_sdf_string function

 28 31  0  0  0  0  0  0  0  0999 V2000
   -1.0054  -13.0622   19.1198 C   0  0  0  0  0  0  0  0  0  0  0  0
    3.1478   -8.5360   28.5161 C   0  0  0  0  0  0  0  0  0  0  0  0
    0.5798   -7.1906   27.9330 C   0  0  0  0  0  0  0  0  0  0  0  0
    0.3978   -5.1561   26.6955 C   0  0  0  0  0  0  0  0  0  0  0  0
    2.3063  -10.0533   30.0125 C   0  0  0  0  0  0  0  0  0  0  0  0
    1.8591   -6.8254   27.4685 N   0  0  0  0  0  0  0  0  0  0  0  0
   -0.2167  -12.1055   18.5568 C   0  0  0  0  0  0  0  0  0  0  0  0
   -2.0661  -10.6994   18.1916 C   0  0  0  0  0  0  0  0  0  0  0  0
    5.2703   -7.5691   27.1123 C   0  0  0  0  0  0  0  0  0  0  0  0
    1.6204   -9.9887   17.2935 C   0  0  0  0  0  0  0  0  0  0  0  0
    1.8931   -7.9265   16.2047 C   0  0  0  0  0  0  0  0  0  0  0  0
    2.4396   -9.0801   16.7132 C   0  0  0  0  0  0  0  0  0  0  0  0
   -0.2575   -8.6234   16.8582 C   0  0  0  0  0  0  0  0  0  0  0  0
    4.0614   -7.0367   27.0106 N   0  0  0  0  0  0  0  0  0  0  0  0
   -2.9133  -11.6279   18.7578 C   0  0  0  0  0  0  0  0  0  0  0  0
    4.5688  -10.1291   29.5758 C   0  0  0  0  0  0  0  0  0  0  0  0
    2.1008   -9.0410   29.1852 N   0  0  0  0  0  0  0  0  0  0  0  0
    3.4829  -10.5697   30.2091 N   0  0  0  0  0  0  0  0  0  0  0  0
   -0.3363   -6.1172   27.5628 C   0  0  0  0  0  0  0  0  0  0  0  0
    3.0331   -7.4400   27.6362 C   0  0  0  0  0  0  0  0  0  0  0  0
    5.4553   -8.5933   27.9644 C   0  0  0  0  0  0  0  0  0  0  0  0
   -2.3870  -12.8440   19.2512 C   0  0  0  0  0  0  0  0  0  0  0  0
    0.5331   -7.6964   16.2751 C   0  0  0  0  0  0  0  0  0  0  0  0
   -0.6740  -10.8737   18.0482 C   0  0  0  0  0  0  0  0  0  0  0  0
    5.6751  -10.5870   29.7637 O   0  0  0  0  0  0  0  0  0  0  0  0
    1.7612   -5.6483   26.7172 C   0  0  0  0  0  0  0  0  0  0  0  0
    0.2221   -9.8326   17.4055 C   0  0  0  0  0  0  0  0  0  0  0  0
    4.3850   -9.0730   28.6745 C   0  0  0  0  0  0  0  0  0  0  0  0
  1  7  4  0
  1 22  4  0
  2 17  4  0
  2 20  4  0
  2 28  4  0
  3  6  1  0
  3 19  1  0
  4 19  1  0
  4 26  1  0
  5 17  4  0
  5 18  4  0
  6 20  1  0
  6 26  1  0
  7 24  4  0
  8 15  4  0
  8 24  4  0
  9 14  4  0
  9 21  4  0
 10 12  4  0
 10 27  4  0
 11 12  4  0
 11 23  4  0
 13 23  4  0
 13 27  4  0
 14 20  4  0
 15 22  4  0
 16 18  4  0
 16 25  2  0
 16 28  4  0
 21 28  4  0
 24 27  1  0
M  END
$$$$

 Created by Python create_sdf_string function

 28 31  0  0  0  0  0  0  0  0999 V2000
   -1.0054  -13.0622   19.1198 C   0  0  0  0  0  0  0  0  0  0  0  0
    3.1478   -8.5360   28.5161 C   0  0  0  0  0  0  0  0  0  0  0  0
    0.5798   -7.1906   27.9330 C   0  0  0  0  0  0  0  0  0  0  0  0
    0.3978   -5.1561   26.6955 C   0  0  0  0  0  0  0  0  0  0  0  0
    2.3063  -10.0533   30.0125 C   0  0  0  0  0  0  0  0  0  0  0  0
    1.8591   -6.8254   27.4685 N   0  0  0  0  0  0  0  0  0  0  0  0
   -0.2167  -12.1055   18.5568 C   0  0  0  0  0  0  0  0  0  0  0  0
   -2.0661  -10.6994   18.1916 C   0  0  0  0  0  0  0  0  0  0  0  0
    5.2703   -7.5691   27.1123 C   0  0  0  0  0  0  0  0  0  0  0  0
    1.6204   -9.9887   17.2935 C   0  0  0  0  0  0  0  0  0  0  0  0
    1.8931   -7.9265   16.2047 C   0  0  0  0  0  0  0  0  0  0  0  0
    2.4396   -9.0801   16.7132 C   0  0  0  0  0  0  0  0  0  0  0  0
   -0.2575   -8.6234   16.8582 C   0  0  0  0  0  0  0  0  0  0  0  0
    4.0614   -7.0367   27.0106 N   0  0  0  0  0  0  0  0  0  0  0  0
   -2.9133  -11.6279   18.7578 C   0  0  0  0  0  0  0  0  0  0  0  0
    4.5688  -10.1291   29.5758 C   0  0  0  0  0  0  0  0  0  0  0  0
    2.1008   -9.0410   29.1852 N   0  0  0  0  0  0  0  0  0  0  0  0
    3.4829  -10.5697   30.2091 N   0  0  0  0  0  0  0  0  0  0  0  0
   -0.3363   -6.1172   27.5628 C   0  0  0  0  0  0  0  0  0  0  0  0
    3.0331   -7.4400   27.6362 C   0  0  0  0  0  0  0  0  0  0  0  0
    5.4553   -8.5933   27.9644 C   0  0  0  0  0  0  0  0  0  0  0  0
   -2.3870  -12.8440   19.2512 C   0  0  0  0  0  0  0  0  0  0  0  0
    0.5331   -7.6964   16.2751 C   0  0  0  0  0  0  0  0  0  0  0  0
   -0.6740  -10.8737   18.0482 C   0  0  0  0  0  0  0  0  0  0  0  0
    5.6751  -10.5870   29.7637 O   0  0  0  0  0  0  0  0  0  0  0  0
    1.7612   -5.6483   26.7172 C   0  0  0  0  0  0  0  0  0  0  0  0
    0.2221   -9.8326   17.4055 C   0  0  0  0  0  0  0  0  0  0  0  0
    4.3850   -9.0730   28.6745 C   0  0  0  0  0  0  0  0  0  0  0  0
  1  7  4  0
  1 22  4  0
  2 17  4  0
  2 20  4  0
  2 28  4  0
  3  6  1  0
  3 19  1  0
  4 19  1  0
  4 26  1  0
  5 17  4  0
  5 18  4  0
  6 20  1  0
  6 26  1  0
  7 24  4  0
  8 15  4  0
  8 24  4  0
  9 14  4  0
  9 21  4  0
 10 12  4  0
 10 27  4  0
 11 12  4  0
 11 23  4  0
 13 23  4  0
 13 27  4  0
 14 20  4  0
 15 22  4  0
 16 18  4  0
 16 25  2  0
 16 28  4  0
 21 28  4  0
 24 27  1  0
M  END
$$$$

 Created by Python create_sdf_string function

 28 31  0  0  0  0  0  0  0  0999 V2000
   -1.0054  -13.0622   19.1198 C   0  0  0  0  0  0  0  0  0  0  0  0
    3.1478   -8.5360   28.5161 C   0  0  0  0  0  0  0  0  0  0  0  0
    0.5798   -7.1906   27.9330 C   0  0  0  0  0  0  0  0  0  0  0  0
    0.3978   -5.1561   26.6955 C   0  0  0  0  0  0  0  0  0  0  0  0
    2.3063  -10.0533   30.0125 C   0  0  0  0  0  0  0  0  0  0  0  0
    1.8591   -6.8254   27.4685 N   0  0  0  0  0  0  0  0  0  0  0  0
   -0.2167  -12.1055   18.5568 C   0  0  0  0  0  0  0  0  0  0  0  0
   -2.0661  -10.6994   18.1916 C   0  0  0  0  0  0  0  0  0  0  0  0
    5.2703   -7.5691   27.1123 C   0  0  0  0  0  0  0  0  0  0  0  0
    1.6204   -9.9887   17.2935 C   0  0  0  0  0  0  0  0  0  0  0  0
    1.8931   -7.9265   16.2047 C   0  0  0  0  0  0  0  0  0  0  0  0
    2.4396   -9.0801   16.7132 C   0  0  0  0  0  0  0  0  0  0  0  0
   -0.2575   -8.6234   16.8582 C   0  0  0  0  0  0  0  0  0  0  0  0
    4.0614   -7.0367   27.0106 N   0  0  0  0  0  0  0  0  0  0  0  0
   -2.9133  -11.6279   18.7578 C   0  0  0  0  0  0  0  0  0  0  0  0
    4.5688  -10.1291   29.5758 C   0  0  0  0  0  0  0  0  0  0  0  0
    2.1008   -9.0410   29.1852 N   0  0  0  0  0  0  0  0  0  0  0  0
    3.4829  -10.5697   30.2091 N   0  0  0  0  0  0  0  0  0  0  0  0
   -0.3363   -6.1172   27.5628 C   0  0  0  0  0  0  0  0  0  0  0  0
    3.0331   -7.4400   27.6362 C   0  0  0  0  0  0  0  0  0  0  0  0
    5.4553   -8.5933   27.9644 C   0  0  0  0  0  0  0  0  0  0  0  0
   -2.3870  -12.8440   19.2512 C   0  0  0  0  0  0  0  0  0  0  0  0
    0.5331   -7.6964   16.2751 C   0  0  0  0  0  0  0  0  0  0  0  0
   -0.6740  -10.8737   18.0482 C   0  0  0  0  0  0  0  0  0  0  0  0
    5.6751  -10.5870   29.7637 O   0  0  0  0  0  0  0  0  0  0  0  0
    1.7612   -5.6483   26.7172 C   0  0  0  0  0  0  0  0  0  0  0  0
    0.2221   -9.8326   17.4055 C   0  0  0  0  0  0  0  0  0  0  0  0
    4.3850   -9.0730   28.6745 C   0  0  0  0  0  0  0  0  0  0  0  0
  1  7  4  0
  1 22  4  0
  2 17  4  0
  2 20  4  0
  2 28  4  0
  3  6  1  0
  3 19  1  0
  4 19  1  0
  4 26  1  0
  5 17  4  0
  5 18  4  0
  6 20  1  0
  6 26  1  0
  7 24  4  0
  8 15  4  0
  8 24  4  0
  9 14  4  0
  9 21  4  0
 10 12  4  0
 10 27  4  0
 11 12  4  0
 11 23  4  0
 13 23  4  0
 13 27  4  0
 14 20  4  0
 15 22  4  0
 16 18  4  0
 16 25  2  0
 16 28  4  0
 21 28  4  0
 24 27  1  0
M  END
$$$$

 Created by Python create_sdf_string function

 28 31  0  0  0  0  0  0  0  0999 V2000
   -1.0054  -13.0622   19.1198 C   0  0  0  0  0  0  0  0  0  0  0  0
    3.1478   -8.5360   28.5161 C   0  0  0  0  0  0  0  0  0  0  0  0
    0.5798   -7.1906   27.9330 C   0  0  0  0  0  0  0  0  0  0  0  0
    0.3978   -5.1561   26.6955 C   0  0  0  0  0  0  0  0  0  0  0  0
    2.3063  -10.0533   30.0125 C   0  0  0  0  0  0  0  0  0  0  0  0
    1.8591   -6.8254   27.4685 N   0  0  0  0  0  0  0  0  0  0  0  0
   -0.2167  -12.1055   18.5568 C   0  0  0  0  0  0  0  0  0  0  0  0
   -2.0661  -10.6994   18.1916 C   0  0  0  0  0  0  0  0  0  0  0  0
    5.2703   -7.5691   27.1123 C   0  0  0  0  0  0  0  0  0  0  0  0
    1.6204   -9.9887   17.2935 C   0  0  0  0  0  0  0  0  0  0  0  0
    1.8931   -7.9265   16.2047 C   0  0  0  0  0  0  0  0  0  0  0  0
    2.4396   -9.0801   16.7132 C   0  0  0  0  0  0  0  0  0  0  0  0
   -0.2575   -8.6234   16.8582 C   0  0  0  0  0  0  0  0  0  0  0  0
    4.0614   -7.0367   27.0106 N   0  0  0  0  0  0  0  0  0  0  0  0
   -2.9133  -11.6279   18.7578 C   0  0  0  0  0  0  0  0  0  0  0  0
    4.5688  -10.1291   29.5758 C   0  0  0  0  0  0  0  0  0  0  0  0
    2.1008   -9.0410   29.1852 N   0  0  0  0  0  0  0  0  0  0  0  0
    3.4829  -10.5697   30.2091 N   0  0  0  0  0  0  0  0  0  0  0  0
   -0.3363   -6.1172   27.5628 C   0  0  0  0  0  0  0  0  0  0  0  0
    3.0331   -7.4400   27.6362 C   0  0  0  0  0  0  0  0  0  0  0  0
    5.4553   -8.5933   27.9644 C   0  0  0  0  0  0  0  0  0  0  0  0
   -2.3870  -12.8440   19.2512 C   0  0  0  0  0  0  0  0  0  0  0  0
    0.5331   -7.6964   16.2751 C   0  0  0  0  0  0  0  0  0  0  0  0
   -0.6740  -10.8737   18.0482 C   0  0  0  0  0  0  0  0  0  0  0  0
    5.6751  -10.5870   29.7637 O   0  0  0  0  0  0  0  0  0  0  0  0
    1.7612   -5.6483   26.7172 C   0  0  0  0  0  0  0  0  0  0  0  0
    0.2221   -9.8326   17.4055 C   0  0  0  0  0  0  0  0  0  0  0  0
    4.3850   -9.0730   28.6745 C   0  0  0  0  0  0  0  0  0  0  0  0
  1  7  4  0
  1 22  4  0
  2 17  4  0
  2 20  4  0
  2 28  4  0
  3  6  1  0
  3 19  1  0
  4 19  1  0
  4 26  1  0
  5 17  4  0
  5 18  4  0
  6 20  1  0
  6 26  1  0
  7 24  4  0
  8 15  4  0
  8 24  4  0
  9 14  4  0
  9 21  4  0
 10 12  4  0
 10 27  4  0
 11 12  4  0
 11 23  4  0
 13 23  4  0
 13 27  4  0
 14 20  4  0
 15 22  4  0
 16 18  4  0
 16 25  2  0
 16 28  4  0
 21 28  4  0
 24 27  1  0
M  END
$$$$

 Created by Python create_sdf_string function

 28 31  0  0  0  0  0  0  0  0999 V2000
   -1.0054  -13.0622   19.1198 C   0  0  0  0  0  0  0  0  0  0  0  0
    3.1478   -8.5360   28.5161 C   0  0  0  0  0  0  0  0  0  0  0  0
    0.5798   -7.1906   27.9330 C   0  0  0  0  0  0  0  0  0  0  0  0
    0.3978   -5.1561   26.6955 C   0  0  0  0  0  0  0  0  0  0  0  0
    2.3063  -10.0533   30.0125 C   0  0  0  0  0  0  0  0  0  0  0  0
    1.8591   -6.8254   27.4685 N   0  0  0  0  0  0  0  0  0  0  0  0
   -0.2167  -12.1055   18.5568 C   0  0  0  0  0  0  0  0  0  0  0  0
   -2.0661  -10.6994   18.1916 C   0  0  0  0  0  0  0  0  0  0  0  0
    5.2703   -7.5691   27.1123 C   0  0  0  0  0  0  0  0  0  0  0  0
    1.6204   -9.9887   17.2935 C   0  0  0  0  0  0  0  0  0  0  0  0
    1.8931   -7.9265   16.2047 C   0  0  0  0  0  0  0  0  0  0  0  0
    2.4396   -9.0801   16.7132 C   0  0  0  0  0  0  0  0  0  0  0  0
   -0.2575   -8.6234   16.8582 C   0  0  0  0  0  0  0  0  0  0  0  0
    4.0614   -7.0367   27.0106 N   0  0  0  0  0  0  0  0  0  0  0  0
   -2.9133  -11.6279   18.7578 C   0  0  0  0  0  0  0  0  0  0  0  0
    4.5688  -10.1291   29.5758 C   0  0  0  0  0  0  0  0  0  0  0  0
    2.1008   -9.0410   29.1852 N   0  0  0  0  0  0  0  0  0  0  0  0
    3.4829  -10.5697   30.2091 N   0  0  0  0  0  0  0  0  0  0  0  0
   -0.3363   -6.1172   27.5628 C   0  0  0  0  0  0  0  0  0  0  0  0
    3.0331   -7.4400   27.6362 C   0  0  0  0  0  0  0  0  0  0  0  0
    5.4553   -8.5933   27.9644 C   0  0  0  0  0  0  0  0  0  0  0  0
   -2.3870  -12.8440   19.2512 C   0  0  0  0  0  0  0  0  0  0  0  0
    0.5331   -7.6964   16.2751 C   0  0  0  0  0  0  0  0  0  0  0  0
   -0.6740  -10.8737   18.0482 C   0  0  0  0  0  0  0  0  0  0  0  0
    5.6751  -10.5870   29.7637 O   0  0  0  0  0  0  0  0  0  0  0  0
    1.7612   -5.6483   26.7172 C   0  0  0  0  0  0  0  0  0  0  0  0
    0.2221   -9.8326   17.4055 C   0  0  0  0  0  0  0  0  0  0  0  0
    4.3850   -9.0730   28.6745 C   0  0  0  0  0  0  0  0  0  0  0  0
  1  7  4  0
  1 22  4  0
  2 17  4  0
  2 20  4  0
  2 28  4  0
  3  6  1  0
  3 19  1  0
  4 19  1  0
  4 26  1  0
  5 17  4  0
  5 18  4  0
  6 20  1  0
  6 26  1  0
  7 24  4  0
  8 15  4  0
  8 24  4  0
  9 14  4  0
  9 21  4  0
 10 12  4  0
 10 27  4  0
 11 12  4  0
 11 23  4  0
 13 23  4  0
 13 27  4  0
 14 20  4  0
 15 22  4  0
 16 18  4  0
 16 25  2  0
 16 28  4  0
 21 28  4  0
 24 27  1  0
M  END
$$$$

 Created by Python create_sdf_string function

 28 31  0  0  0  0  0  0  0  0999 V2000
   -1.0054  -13.0622   19.1198 C   0  0  0  0  0  0  0  0  0  0  0  0
    3.1478   -8.5360   28.5161 C   0  0  0  0  0  0  0  0  0  0  0  0
    0.5798   -7.1906   27.9330 C   0  0  0  0  0  0  0  0  0  0  0  0
    0.3978   -5.1561   26.6955 C   0  0  0  0  0  0  0  0  0  0  0  0
    2.3063  -10.0533   30.0125 C   0  0  0  0  0  0  0  0  0  0  0  0
    1.8591   -6.8254   27.4685 N   0  0  0  0  0  0  0  0  0  0  0  0
   -0.2167  -12.1055   18.5568 C   0  0  0  0  0  0  0  0  0  0  0  0
   -2.0661  -10.6994   18.1916 C   0  0  0  0  0  0  0  0  0  0  0  0
    5.2703   -7.5691   27.1123 C   0  0  0  0  0  0  0  0  0  0  0  0
    1.6204   -9.9887   17.2935 C   0  0  0  0  0  0  0  0  0  0  0  0
    1.8931   -7.9265   16.2047 C   0  0  0  0  0  0  0  0  0  0  0  0
    2.4396   -9.0801   16.7132 C   0  0  0  0  0  0  0  0  0  0  0  0
   -0.2575   -8.6234   16.8582 C   0  0  0  0  0  0  0  0  0  0  0  0
    4.0614   -7.0367   27.0106 N   0  0  0  0  0  0  0  0  0  0  0  0
   -2.9133  -11.6279   18.7578 C   0  0  0  0  0  0  0  0  0  0  0  0
    4.5688  -10.1291   29.5758 C   0  0  0  0  0  0  0  0  0  0  0  0
    2.1008   -9.0410   29.1852 N   0  0  0  0  0  0  0  0  0  0  0  0
    3.4829  -10.5697   30.2091 N   0  0  0  0  0  0  0  0  0  0  0  0
   -0.3363   -6.1172   27.5628 C   0  0  0  0  0  0  0  0  0  0  0  0
    3.0331   -7.4400   27.6362 C   0  0  0  0  0  0  0  0  0  0  0  0
    5.4553   -8.5933   27.9644 C   0  0  0  0  0  0  0  0  0  0  0  0
   -2.3870  -12.8440   19.2512 C   0  0  0  0  0  0  0  0  0  0  0  0
    0.5331   -7.6964   16.2751 C   0  0  0  0  0  0  0  0  0  0  0  0
   -0.6740  -10.8737   18.0482 C   0  0  0  0  0  0  0  0  0  0  0  0
    5.6751  -10.5870   29.7637 O   0  0  0  0  0  0  0  0  0  0  0  0
    1.7612   -5.6483   26.7172 C   0  0  0  0  0  0  0  0  0  0  0  0
    0.2221   -9.8326   17.4055 C   0  0  0  0  0  0  0  0  0  0  0  0
    4.3850   -9.0730   28.6745 C   0  0  0  0  0  0  0  0  0  0  0  0
  1  7  4  0
  1 22  4  0
  2 17  4  0
  2 20  4  0
  2 28  4  0
  3  6  1  0
  3 19  1  0
  4 19  1  0
  4 26  1  0
  5 17  4  0
  5 18  4  0
  6 20  1  0
  6 26  1  0
  7 24  4  0
  8 15  4  0
  8 24  4  0
  9 14  4  0
  9 21  4  0
 10 12  4  0
 10 27  4  0
 11 12  4  0
 11 23  4  0
 13 23  4  0
 13 27  4  0
 14 20  4  0
 15 22  4  0
 16 18  4  0
 16 25  2  0
 16 28  4  0
 21 28  4  0
 24 27  1  0
M  END
$$$$

 Created by Python create_sdf_string function

 28 31  0  0  0  0  0  0  0  0999 V2000
   -1.0054  -13.0622   19.1198 C   0  0  0  0  0  0  0  0  0  0  0  0
    3.1478   -8.5360   28.5161 C   0  0  0  0  0  0  0  0  0  0  0  0
    0.5798   -7.1906   27.9330 C   0  0  0  0  0  0  0  0  0  0  0  0
    0.3978   -5.1561   26.6955 C   0  0  0  0  0  0  0  0  0  0  0  0
    2.3063  -10.0533   30.0125 C   0  0  0  0  0  0  0  0  0  0  0  0
    1.8591   -6.8254   27.4685 N   0  0  0  0  0  0  0  0  0  0  0  0
   -0.2167  -12.1055   18.5568 C   0  0  0  0  0  0  0  0  0  0  0  0
   -2.0661  -10.6994   18.1916 C   0  0  0  0  0  0  0  0  0  0  0  0
    5.2703   -7.5691   27.1123 C   0  0  0  0  0  0  0  0  0  0  0  0
    1.6204   -9.9887   17.2935 C   0  0  0  0  0  0  0  0  0  0  0  0
    1.8931   -7.9265   16.2047 C   0  0  0  0  0  0  0  0  0  0  0  0
    2.4396   -9.0801   16.7132 C   0  0  0  0  0  0  0  0  0  0  0  0
   -0.2575   -8.6234   16.8582 C   0  0  0  0  0  0  0  0  0  0  0  0
    4.0614   -7.0367   27.0106 N   0  0  0  0  0  0  0  0  0  0  0  0
   -2.9133  -11.6279   18.7578 C   0  0  0  0  0  0  0  0  0  0  0  0
    4.5688  -10.1291   29.5758 C   0  0  0  0  0  0  0  0  0  0  0  0
    2.1008   -9.0410   29.1852 N   0  0  0  0  0  0  0  0  0  0  0  0
    3.4829  -10.5697   30.2091 N   0  0  0  0  0  0  0  0  0  0  0  0
   -0.3363   -6.1172   27.5628 C   0  0  0  0  0  0  0  0  0  0  0  0
    3.0331   -7.4400   27.6362 C   0  0  0  0  0  0  0  0  0  0  0  0
    5.4553   -8.5933   27.9644 C   0  0  0  0  0  0  0  0  0  0  0  0
   -2.3870  -12.8440   19.2512 C   0  0  0  0  0  0  0  0  0  0  0  0
    0.5331   -7.6964   16.2751 C   0  0  0  0  0  0  0  0  0  0  0  0
   -0.6740  -10.8737   18.0482 C   0  0  0  0  0  0  0  0  0  0  0  0
    5.6751  -10.5870   29.7637 O   0  0  0  0  0  0  0  0  0  0  0  0
    1.7612   -5.6483   26.7172 C   0  0  0  0  0  0  0  0  0  0  0  0
    0.2221   -9.8326   17.4055 C   0  0  0  0  0  0  0  0  0  0  0  0
    4.3850   -9.0730   28.6745 C   0  0  0  0  0  0  0  0  0  0  0  0
  1  7  4  0
  1 22  4  0
  2 17  4  0
  2 20  4  0
  2 28  4  0
  3  6  1  0
  3 19  1  0
  4 19  1  0
  4 26  1  0
  5 17  4  0
  5 18  4  0
  6 20  1  0
  6 26  1  0
  7 24  4  0
  8 15  4  0
  8 24  4  0
  9 14  4  0
  9 21  4  0
 10 12  4  0
 10 27  4  0
 11 12  4  0
 11 23  4  0
 13 23  4  0
 13 27  4  0
 14 20  4  0
 15 22  4  0
 16 18  4  0
 16 25  2  0
 16 28  4  0
 21 28  4  0
 24 27  1  0
M  END
$$$$

 Created by Python create_sdf_string function

 28 31  0  0  0  0  0  0  0  0999 V2000
   -1.0054  -13.0622   19.1198 C   0  0  0  0  0  0  0  0  0  0  0  0
    3.1478   -8.5360   28.5161 C   0  0  0  0  0  0  0  0  0  0  0  0
    0.5798   -7.1906   27.9330 C   0  0  0  0  0  0  0  0  0  0  0  0
    0.3978   -5.1561   26.6955 C   0  0  0  0  0  0  0  0  0  0  0  0
    2.3063  -10.0533   30.0125 C   0  0  0  0  0  0  0  0  0  0  0  0
    1.8591   -6.8254   27.4685 N   0  0  0  0  0  0  0  0  0  0  0  0
   -0.2167  -12.1055   18.5568 C   0  0  0  0  0  0  0  0  0  0  0  0
   -2.0661  -10.6994   18.1916 C   0  0  0  0  0  0  0  0  0  0  0  0
    5.2703   -7.5691   27.1123 C   0  0  0  0  0  0  0  0  0  0  0  0
    1.6204   -9.9887   17.2935 C   0  0  0  0  0  0  0  0  0  0  0  0
    1.8931   -7.9265   16.2047 C   0  0  0  0  0  0  0  0  0  0  0  0
    2.4396   -9.0801   16.7132 C   0  0  0  0  0  0  0  0  0  0  0  0
   -0.2575   -8.6234   16.8582 C   0  0  0  0  0  0  0  0  0  0  0  0
    4.0614   -7.0367   27.0106 N   0  0  0  0  0  0  0  0  0  0  0  0
   -2.9133  -11.6279   18.7578 C   0  0  0  0  0  0  0  0  0  0  0  0
    4.5688  -10.1291   29.5758 C   0  0  0  0  0  0  0  0  0  0  0  0
    2.1008   -9.0410   29.1852 N   0  0  0  0  0  0  0  0  0  0  0  0
    3.4829  -10.5697   30.2091 N   0  0  0  0  0  0  0  0  0  0  0  0
   -0.3363   -6.1172   27.5628 C   0  0  0  0  0  0  0  0  0  0  0  0
    3.0331   -7.4400   27.6362 C   0  0  0  0  0  0  0  0  0  0  0  0
    5.4553   -8.5933   27.9644 C   0  0  0  0  0  0  0  0  0  0  0  0
   -2.3870  -12.8440   19.2512 C   0  0  0  0  0  0  0  0  0  0  0  0
    0.5331   -7.6964   16.2751 C   0  0  0  0  0  0  0  0  0  0  0  0
   -0.6740  -10.8737   18.0482 C   0  0  0  0  0  0  0  0  0  0  0  0
    5.6751  -10.5870   29.7637 O   0  0  0  0  0  0  0  0  0  0  0  0
    1.7612   -5.6483   26.7172 C   0  0  0  0  0  0  0  0  0  0  0  0
    0.2221   -9.8326   17.4055 C   0  0  0  0  0  0  0  0  0  0  0  0
    4.3850   -9.0730   28.6745 C   0  0  0  0  0  0  0  0  0  0  0  0
  1  7  4  0
  1 22  4  0
  2 17  4  0
  2 20  4  0
  2 28  4  0
  3  6  1  0
  3 19  1  0
  4 19  1  0
  4 26  1  0
  5 17  4  0
  5 18  4  0
  6 20  1  0
  6 26  1  0
  7 24  4  0
  8 15  4  0
  8 24  4  0
  9 14  4  0
  9 21  4  0
 10 12  4  0
 10 27  4  0
 11 12  4  0
 11 23  4  0
 13 23  4  0
 13 27  4  0
 14 20  4  0
 15 22  4  0
 16 18  4  0
 16 25  2  0
 16 28  4  0
 21 28  4  0
 24 27  1  0
M  END
$$$$

 Created by Python create_sdf_string function

 28 31  0  0  0  0  0  0  0  0999 V2000
   -1.0054  -13.0622   19.1198 C   0  0  0  0  0  0  0  0  0  0  0  0
    3.1478   -8.5360   28.5161 C   0  0  0  0  0  0  0  0  0  0  0  0
    0.5798   -7.1906   27.9330 C   0  0  0  0  0  0  0  0  0  0  0  0
    0.3978   -5.1561   26.6955 C   0  0  0  0  0  0  0  0  0  0  0  0
    2.3063  -10.0533   30.0125 C   0  0  0  0  0  0  0  0  0  0  0  0
    1.8591   -6.8254   27.4685 N   0  0  0  0  0  0  0  0  0  0  0  0
   -0.2167  -12.1055   18.5568 C   0  0  0  0  0  0  0  0  0  0  0  0
   -2.0661  -10.6994   18.1916 C   0  0  0  0  0  0  0  0  0  0  0  0
    5.2703   -7.5691   27.1123 C   0  0  0  0  0  0  0  0  0  0  0  0
    1.6204   -9.9887   17.2935 C   0  0  0  0  0  0  0  0  0  0  0  0
    1.8931   -7.9265   16.2047 C   0  0  0  0  0  0  0  0  0  0  0  0
    2.4396   -9.0801   16.7132 C   0  0  0  0  0  0  0  0  0  0  0  0
   -0.2575   -8.6234   16.8582 C   0  0  0  0  0  0  0  0  0  0  0  0
    4.0614   -7.0367   27.0106 N   0  0  0  0  0  0  0  0  0  0  0  0
   -2.9133  -11.6279   18.7578 C   0  0  0  0  0  0  0  0  0  0  0  0
    4.5688  -10.1291   29.5758 C   0  0  0  0  0  0  0  0  0  0  0  0
    2.1008   -9.0410   29.1852 N   0  0  0  0  0  0  0  0  0  0  0  0
    3.4829  -10.5697   30.2091 N   0  0  0  0  0  0  0  0  0  0  0  0
   -0.3363   -6.1172   27.5628 C   0  0  0  0  0  0  0  0  0  0  0  0
    3.0331   -7.4400   27.6362 C   0  0  0  0  0  0  0  0  0  0  0  0
    5.4553   -8.5933   27.9644 C   0  0  0  0  0  0  0  0  0  0  0  0
   -2.3870  -12.8440   19.2512 C   0  0  0  0  0  0  0  0  0  0  0  0
    0.5331   -7.6964   16.2751 C   0  0  0  0  0  0  0  0  0  0  0  0
   -0.6740  -10.8737   18.0482 C   0  0  0  0  0  0  0  0  0  0  0  0
    5.6751  -10.5870   29.7637 O   0  0  0  0  0  0  0  0  0  0  0  0
    1.7612   -5.6483   26.7172 C   0  0  0  0  0  0  0  0  0  0  0  0
    0.2221   -9.8326   17.4055 C   0  0  0  0  0  0  0  0  0  0  0  0
    4.3850   -9.0730   28.6745 C   0  0  0  0  0  0  0  0  0  0  0  0
  1  7  4  0
  1 22  4  0
  2 17  4  0
  2 20  4  0
  2 28  4  0
  3  6  1  0
  3 19  1  0
  4 19  1  0
  4 26  1  0
  5 17  4  0
  5 18  4  0
  6 20  1  0
  6 26  1  0
  7 24  4  0
  8 15  4  0
  8 24  4  0
  9 14  4  0
  9 21  4  0
 10 12  4  0
 10 27  4  0
 11 12  4  0
 11 23  4  0
 13 23  4  0
 13 27  4  0
 14 20  4  0
 15 22  4  0
 16 18  4  0
 16 25  2  0
 16 28  4  0
 21 28  4  0
 24 27  1  0
M  END
$$$$

 Created by Python create_sdf_string function

 28 31  0  0  0  0  0  0  0  0999 V2000
   -1.0054  -13.0622   19.1198 C   0  0  0  0  0  0  0  0  0  0  0  0
    3.1478   -8.5360   28.5161 C   0  0  0  0  0  0  0  0  0  0  0  0
    0.5798   -7.1906   27.9330 C   0  0  0  0  0  0  0  0  0  0  0  0
    0.3978   -5.1561   26.6955 C   0  0  0  0  0  0  0  0  0  0  0  0
    2.3063  -10.0533   30.0125 C   0  0  0  0  0  0  0  0  0  0  0  0
    1.8591   -6.8254   27.4685 N   0  0  0  0  0  0  0  0  0  0  0  0
   -0.2167  -12.1055   18.5568 C   0  0  0  0  0  0  0  0  0  0  0  0
   -2.0661  -10.6994   18.1916 C   0  0  0  0  0  0  0  0  0  0  0  0
    5.2703   -7.5691   27.1123 C   0  0  0  0  0  0  0  0  0  0  0  0
    1.6204   -9.9887   17.2935 C   0  0  0  0  0  0  0  0  0  0  0  0
    1.8931   -7.9265   16.2047 C   0  0  0  0  0  0  0  0  0  0  0  0
    2.4396   -9.0801   16.7132 C   0  0  0  0  0  0  0  0  0  0  0  0
   -0.2575   -8.6234   16.8582 C   0  0  0  0  0  0  0  0  0  0  0  0
    4.0614   -7.0367   27.0106 N   0  0  0  0  0  0  0  0  0  0  0  0
   -2.9133  -11.6279   18.7578 C   0  0  0  0  0  0  0  0  0  0  0  0
    4.5688  -10.1291   29.5758 C   0  0  0  0  0  0  0  0  0  0  0  0
    2.1008   -9.0410   29.1852 N   0  0  0  0  0  0  0  0  0  0  0  0
    3.4829  -10.5697   30.2091 N   0  0  0  0  0  0  0  0  0  0  0  0
   -0.3363   -6.1172   27.5628 C   0  0  0  0  0  0  0  0  0  0  0  0
    3.0331   -7.4400   27.6362 C   0  0  0  0  0  0  0  0  0  0  0  0
    5.4553   -8.5933   27.9644 C   0  0  0  0  0  0  0  0  0  0  0  0
   -2.3870  -12.8440   19.2512 C   0  0  0  0  0  0  0  0  0  0  0  0
    0.5331   -7.6964   16.2751 C   0  0  0  0  0  0  0  0  0  0  0  0
   -0.6740  -10.8737   18.0482 C   0  0  0  0  0  0  0  0  0  0  0  0
    5.6751  -10.5870   29.7637 O   0  0  0  0  0  0  0  0  0  0  0  0
    1.7612   -5.6483   26.7172 C   0  0  0  0  0  0  0  0  0  0  0  0
    0.2221   -9.8326   17.4055 C   0  0  0  0  0  0  0  0  0  0  0  0
    4.3850   -9.0730   28.6745 C   0  0  0  0  0  0  0  0  0  0  0  0
  1  7  4  0
  1 22  4  0
  2 17  4  0
  2 20  4  0
  2 28  4  0
  3  6  1  0
  3 19  1  0
  4 19  1  0
  4 26  1  0
  5 17  4  0
  5 18  4  0
  6 20  1  0
  6 26  1  0
  7 24  4  0
  8 15  4  0
  8 24  4  0
  9 14  4  0
  9 21  4  0
 10 12  4  0
 10 27  4  0
 11 12  4  0
 11 23  4  0
 13 23  4  0
 13 27  4  0
 14 20  4  0
 15 22  4  0
 16 18  4  0
 16 25  2  0
 16 28  4  0
 21 28  4  0
 24 27  1  0
M  END
$$$$

 Created by Python create_sdf_string function

 28 31  0  0  0  0  0  0  0  0999 V2000
   -1.0054  -13.0622   19.1198 C   0  0  0  0  0  0  0  0  0  0  0  0
    3.1478   -8.5360   28.5161 C   0  0  0  0  0  0  0  0  0  0  0  0
    0.5798   -7.1906   27.9330 C   0  0  0  0  0  0  0  0  0  0  0  0
    0.3978   -5.1561   26.6955 C   0  0  0  0  0  0  0  0  0  0  0  0
    2.3063  -10.0533   30.0125 C   0  0  0  0  0  0  0  0  0  0  0  0
    1.8591   -6.8254   27.4685 N   0  0  0  0  0  0  0  0  0  0  0  0
   -0.2167  -12.1055   18.5568 C   0  0  0  0  0  0  0  0  0  0  0  0
   -2.0661  -10.6994   18.1916 C   0  0  0  0  0  0  0  0  0  0  0  0
    5.2703   -7.5691   27.1123 C   0  0  0  0  0  0  0  0  0  0  0  0
    1.6204   -9.9887   17.2935 C   0  0  0  0  0  0  0  0  0  0  0  0
    1.8931   -7.9265   16.2047 C   0  0  0  0  0  0  0  0  0  0  0  0
    2.4396   -9.0801   16.7132 C   0  0  0  0  0  0  0  0  0  0  0  0
   -0.2575   -8.6234   16.8582 C   0  0  0  0  0  0  0  0  0  0  0  0
    4.0614   -7.0367   27.0106 N   0  0  0  0  0  0  0  0  0  0  0  0
   -2.9133  -11.6279   18.7578 C   0  0  0  0  0  0  0  0  0  0  0  0
    4.5688  -10.1291   29.5758 C   0  0  0  0  0  0  0  0  0  0  0  0
    2.1008   -9.0410   29.1852 N   0  0  0  0  0  0  0  0  0  0  0  0
    3.4829  -10.5697   30.2091 N   0  0  0  0  0  0  0  0  0  0  0  0
   -0.3363   -6.1172   27.5628 C   0  0  0  0  0  0  0  0  0  0  0  0
    3.0331   -7.4400   27.6362 C   0  0  0  0  0  0  0  0  0  0  0  0
    5.4553   -8.5933   27.9644 C   0  0  0  0  0  0  0  0  0  0  0  0
   -2.3870  -12.8440   19.2512 C   0  0  0  0  0  0  0  0  0  0  0  0
    0.5331   -7.6964   16.2751 C   0  0  0  0  0  0  0  0  0  0  0  0
   -0.6740  -10.8737   18.0482 C   0  0  0  0  0  0  0  0  0  0  0  0
    5.6751  -10.5870   29.7637 O   0  0  0  0  0  0  0  0  0  0  0  0
    1.7612   -5.6483   26.7172 C   0  0  0  0  0  0  0  0  0  0  0  0
    0.2221   -9.8326   17.4055 C   0  0  0  0  0  0  0  0  0  0  0  0
    4.3850   -9.0730   28.6745 C   0  0  0  0  0  0  0  0  0  0  0  0
  1  7  4  0
  1 22  4  0
  2 17  4  0
  2 20  4  0
  2 28  4  0
  3  6  1  0
  3 19  1  0
  4 19  1  0
  4 26  1  0
  5 17  4  0
  5 18  4  0
  6 20  1  0
  6 26  1  0
  7 24  4  0
  8 15  4  0
  8 24  4  0
  9 14  4  0
  9 21  4  0
 10 12  4  0
 10 27  4  0
 11 12  4  0
 11 23  4  0
 13 23  4  0
 13 27  4  0
 14 20  4  0
 15 22  4  0
 16 18  4  0
 16 25  2  0
 16 28  4  0
 21 28  4  0
 24 27  1  0
M  END
$$$$

 Created by Python create_sdf_string function

 28 31  0  0  0  0  0  0  0  0999 V2000
   -1.0054  -13.0622   19.1198 C   0  0  0  0  0  0  0  0  0  0  0  0
    3.1478   -8.5360   28.5161 C   0  0  0  0  0  0  0  0  0  0  0  0
    0.5798   -7.1906   27.9330 C   0  0  0  0  0  0  0  0  0  0  0  0
    0.3978   -5.1561   26.6955 C   0  0  0  0  0  0  0  0  0  0  0  0
    2.3063  -10.0533   30.0125 C   0  0  0  0  0  0  0  0  0  0  0  0
    1.8591   -6.8254   27.4685 N   0  0  0  0  0  0  0  0  0  0  0  0
   -0.2167  -12.1055   18.5568 C   0  0  0  0  0  0  0  0  0  0  0  0
   -2.0661  -10.6994   18.1916 C   0  0  0  0  0  0  0  0  0  0  0  0
    5.2703   -7.5691   27.1123 C   0  0  0  0  0  0  0  0  0  0  0  0
    1.6204   -9.9887   17.2935 C   0  0  0  0  0  0  0  0  0  0  0  0
    1.8931   -7.9265   16.2047 C   0  0  0  0  0  0  0  0  0  0  0  0
    2.4396   -9.0801   16.7132 C   0  0  0  0  0  0  0  0  0  0  0  0
   -0.2575   -8.6234   16.8582 C   0  0  0  0  0  0  0  0  0  0  0  0
    4.0614   -7.0367   27.0106 N   0  0  0  0  0  0  0  0  0  0  0  0
   -2.9133  -11.6279   18.7578 C   0  0  0  0  0  0  0  0  0  0  0  0
    4.5688  -10.1291   29.5758 C   0  0  0  0  0  0  0  0  0  0  0  0
    2.1008   -9.0410   29.1852 N   0  0  0  0  0  0  0  0  0  0  0  0
    3.4829  -10.5697   30.2091 N   0  0  0  0  0  0  0  0  0  0  0  0
   -0.3363   -6.1172   27.5628 C   0  0  0  0  0  0  0  0  0  0  0  0
    3.0331   -7.4400   27.6362 C   0  0  0  0  0  0  0  0  0  0  0  0
    5.4553   -8.5933   27.9644 C   0  0  0  0  0  0  0  0  0  0  0  0
   -2.3870  -12.8440   19.2512 C   0  0  0  0  0  0  0  0  0  0  0  0
    0.5331   -7.6964   16.2751 C   0  0  0  0  0  0  0  0  0  0  0  0
   -0.6740  -10.8737   18.0482 C   0  0  0  0  0  0  0  0  0  0  0  0
    5.6751  -10.5870   29.7637 O   0  0  0  0  0  0  0  0  0  0  0  0
    1.7612   -5.6483   26.7172 C   0  0  0  0  0  0  0  0  0  0  0  0
    0.2221   -9.8326   17.4055 C   0  0  0  0  0  0  0  0  0  0  0  0
    4.3850   -9.0730   28.6745 C   0  0  0  0  0  0  0  0  0  0  0  0
  1  7  4  0
  1 22  4  0
  2 17  4  0
  2 20  4  0
  2 28  4  0
  3  6  1  0
  3 19  1  0
  4 19  1  0
  4 26  1  0
  5 17  4  0
  5 18  4  0
  6 20  1  0
  6 26  1  0
  7 24  4  0
  8 15  4  0
  8 24  4  0
  9 14  4  0
  9 21  4  0
 10 12  4  0
 10 27  4  0
 11 12  4  0
 11 23  4  0
 13 23  4  0
 13 27  4  0
 14 20  4  0
 15 22  4  0
 16 18  4  0
 16 25  2  0
 16 28  4  0
 21 28  4  0
 24 27  1  0
M  END
$$$$

 Created by Python create_sdf_string function

 28 31  0  0  0  0  0  0  0  0999 V2000
   -1.0054  -13.0622   19.1198 C   0  0  0  0  0  0  0  0  0  0  0  0
    3.1478   -8.5360   28.5161 C   0  0  0  0  0  0  0  0  0  0  0  0
    0.5798   -7.1906   27.9330 C   0  0  0  0  0  0  0  0  0  0  0  0
    0.3978   -5.1561   26.6955 C   0  0  0  0  0  0  0  0  0  0  0  0
    2.3063  -10.0533   30.0125 C   0  0  0  0  0  0  0  0  0  0  0  0
    1.8591   -6.8254   27.4685 N   0  0  0  0  0  0  0  0  0  0  0  0
   -0.2167  -12.1055   18.5568 C   0  0  0  0  0  0  0  0  0  0  0  0
   -2.0661  -10.6994   18.1916 C   0  0  0  0  0  0  0  0  0  0  0  0
    5.2703   -7.5691   27.1123 C   0  0  0  0  0  0  0  0  0  0  0  0
    1.6204   -9.9887   17.2935 C   0  0  0  0  0  0  0  0  0  0  0  0
    1.8931   -7.9265   16.2047 C   0  0  0  0  0  0  0  0  0  0  0  0
    2.4396   -9.0801   16.7132 C   0  0  0  0  0  0  0  0  0  0  0  0
   -0.2575   -8.6234   16.8582 C   0  0  0  0  0  0  0  0  0  0  0  0
    4.0614   -7.0367   27.0106 N   0  0  0  0  0  0  0  0  0  0  0  0
   -2.9133  -11.6279   18.7578 C   0  0  0  0  0  0  0  0  0  0  0  0
    4.5688  -10.1291   29.5758 C   0  0  0  0  0  0  0  0  0  0  0  0
    2.1008   -9.0410   29.1852 N   0  0  0  0  0  0  0  0  0  0  0  0
    3.4829  -10.5697   30.2091 N   0  0  0  0  0  0  0  0  0  0  0  0
   -0.3363   -6.1172   27.5628 C   0  0  0  0  0  0  0  0  0  0  0  0
    3.0331   -7.4400   27.6362 C   0  0  0  0  0  0  0  0  0  0  0  0
    5.4553   -8.5933   27.9644 C   0  0  0  0  0  0  0  0  0  0  0  0
   -2.3870  -12.8440   19.2512 C   0  0  0  0  0  0  0  0  0  0  0  0
    0.5331   -7.6964   16.2751 C   0  0  0  0  0  0  0  0  0  0  0  0
   -0.6740  -10.8737   18.0482 C   0  0  0  0  0  0  0  0  0  0  0  0
    5.6751  -10.5870   29.7637 O   0  0  0  0  0  0  0  0  0  0  0  0
    1.7612   -5.6483   26.7172 C   0  0  0  0  0  0  0  0  0  0  0  0
    0.2221   -9.8326   17.4055 C   0  0  0  0  0  0  0  0  0  0  0  0
    4.3850   -9.0730   28.6745 C   0  0  0  0  0  0  0  0  0  0  0  0
  1  7  4  0
  1 22  4  0
  2 17  4  0
  2 20  4  0
  2 28  4  0
  3  6  1  0
  3 19  1  0
  4 19  1  0
  4 26  1  0
  5 17  4  0
  5 18  4  0
  6 20  1  0
  6 26  1  0
  7 24  4  0
  8 15  4  0
  8 24  4  0
  9 14  4  0
  9 21  4  0
 10 12  4  0
 10 27  4  0
 11 12  4  0
 11 23  4  0
 13 23  4  0
 13 27  4  0
 14 20  4  0
 15 22  4  0
 16 18  4  0
 16 25  2  0
 16 28  4  0
 21 28  4  0
 24 27  1  0
M  END
$$$$

 Created by Python create_sdf_string function

 28 31  0  0  0  0  0  0  0  0999 V2000
   -1.0054  -13.0622   19.1198 C   0  0  0  0  0  0  0  0  0  0  0  0
    3.1478   -8.5360   28.5161 C   0  0  0  0  0  0  0  0  0  0  0  0
    0.5798   -7.1906   27.9330 C   0  0  0  0  0  0  0  0  0  0  0  0
    0.3978   -5.1561   26.6955 C   0  0  0  0  0  0  0  0  0  0  0  0
    2.3063  -10.0533   30.0125 C   0  0  0  0  0  0  0  0  0  0  0  0
    1.8591   -6.8254   27.4685 N   0  0  0  0  0  0  0  0  0  0  0  0
   -0.2167  -12.1055   18.5568 C   0  0  0  0  0  0  0  0  0  0  0  0
   -2.0661  -10.6994   18.1916 C   0  0  0  0  0  0  0  0  0  0  0  0
    5.2703   -7.5691   27.1123 C   0  0  0  0  0  0  0  0  0  0  0  0
    1.6204   -9.9887   17.2935 C   0  0  0  0  0  0  0  0  0  0  0  0
    1.8931   -7.9265   16.2047 C   0  0  0  0  0  0  0  0  0  0  0  0
    2.4396   -9.0801   16.7132 C   0  0  0  0  0  0  0  0  0  0  0  0
   -0.2575   -8.6234   16.8582 C   0  0  0  0  0  0  0  0  0  0  0  0
    4.0614   -7.0367   27.0106 N   0  0  0  0  0  0  0  0  0  0  0  0
   -2.9133  -11.6279   18.7578 C   0  0  0  0  0  0  0  0  0  0  0  0
    4.5688  -10.1291   29.5758 C   0  0  0  0  0  0  0  0  0  0  0  0
    2.1008   -9.0410   29.1852 N   0  0  0  0  0  0  0  0  0  0  0  0
    3.4829  -10.5697   30.2091 N   0  0  0  0  0  0  0  0  0  0  0  0
   -0.3363   -6.1172   27.5628 C   0  0  0  0  0  0  0  0  0  0  0  0
    3.0331   -7.4400   27.6362 C   0  0  0  0  0  0  0  0  0  0  0  0
    5.4553   -8.5933   27.9644 C   0  0  0  0  0  0  0  0  0  0  0  0
   -2.3870  -12.8440   19.2512 C   0  0  0  0  0  0  0  0  0  0  0  0
    0.5331   -7.6964   16.2751 C   0  0  0  0  0  0  0  0  0  0  0  0
   -0.6740  -10.8737   18.0482 C   0  0  0  0  0  0  0  0  0  0  0  0
    5.6751  -10.5870   29.7637 O   0  0  0  0  0  0  0  0  0  0  0  0
    1.7612   -5.6483   26.7172 C   0  0  0  0  0  0  0  0  0  0  0  0
    0.2221   -9.8326   17.4055 C   0  0  0  0  0  0  0  0  0  0  0  0
    4.3850   -9.0730   28.6745 C   0  0  0  0  0  0  0  0  0  0  0  0
  1  7  4  0
  1 22  4  0
  2 17  4  0
  2 20  4  0
  2 28  4  0
  3  6  1  0
  3 19  1  0
  4 19  1  0
  4 26  1  0
  5 17  4  0
  5 18  4  0
  6 20  1  0
  6 26  1  0
  7 24  4  0
  8 15  4  0
  8 24  4  0
  9 14  4  0
  9 21  4  0
 10 12  4  0
 10 27  4  0
 11 12  4  0
 11 23  4  0
 13 23  4  0
 13 27  4  0
 14 20  4  0
 15 22  4  0
 16 18  4  0
 16 25  2  0
 16 28  4  0
 21 28  4  0
 24 27  1  0
M  END
$$$$

 Created by Python create_sdf_string function

 28 31  0  0  0  0  0  0  0  0999 V2000
   -1.0054  -13.0622   19.1198 C   0  0  0  0  0  0  0  0  0  0  0  0
    3.1478   -8.5360   28.5161 C   0  0  0  0  0  0  0  0  0  0  0  0
    0.5798   -7.1906   27.9330 C   0  0  0  0  0  0  0  0  0  0  0  0
    0.3978   -5.1561   26.6955 C   0  0  0  0  0  0  0  0  0  0  0  0
    2.3063  -10.0533   30.0125 C   0  0  0  0  0  0  0  0  0  0  0  0
    1.8591   -6.8254   27.4685 N   0  0  0  0  0  0  0  0  0  0  0  0
   -0.2167  -12.1055   18.5568 C   0  0  0  0  0  0  0  0  0  0  0  0
   -2.0661  -10.6994   18.1916 C   0  0  0  0  0  0  0  0  0  0  0  0
    5.2703   -7.5691   27.1123 C   0  0  0  0  0  0  0  0  0  0  0  0
    1.6204   -9.9887   17.2935 C   0  0  0  0  0  0  0  0  0  0  0  0
    1.8931   -7.9265   16.2047 C   0  0  0  0  0  0  0  0  0  0  0  0
    2.4396   -9.0801   16.7132 C   0  0  0  0  0  0  0  0  0  0  0  0
   -0.2575   -8.6234   16.8582 C   0  0  0  0  0  0  0  0  0  0  0  0
    4.0614   -7.0367   27.0106 N   0  0  0  0  0  0  0  0  0  0  0  0
   -2.9133  -11.6279   18.7578 C   0  0  0  0  0  0  0  0  0  0  0  0
    4.5688  -10.1291   29.5758 C   0  0  0  0  0  0  0  0  0  0  0  0
    2.1008   -9.0410   29.1852 N   0  0  0  0  0  0  0  0  0  0  0  0
    3.4829  -10.5697   30.2091 N   0  0  0  0  0  0  0  0  0  0  0  0
   -0.3363   -6.1172   27.5628 C   0  0  0  0  0  0  0  0  0  0  0  0
    3.0331   -7.4400   27.6362 C   0  0  0  0  0  0  0  0  0  0  0  0
    5.4553   -8.5933   27.9644 C   0  0  0  0  0  0  0  0  0  0  0  0
   -2.3870  -12.8440   19.2512 C   0  0  0  0  0  0  0  0  0  0  0  0
    0.5331   -7.6964   16.2751 C   0  0  0  0  0  0  0  0  0  0  0  0
   -0.6740  -10.8737   18.0482 C   0  0  0  0  0  0  0  0  0  0  0  0
    5.6751  -10.5870   29.7637 O   0  0  0  0  0  0  0  0  0  0  0  0
    1.7612   -5.6483   26.7172 C   0  0  0  0  0  0  0  0  0  0  0  0
    0.2221   -9.8326   17.4055 C   0  0  0  0  0  0  0  0  0  0  0  0
    4.3850   -9.0730   28.6745 C   0  0  0  0  0  0  0  0  0  0  0  0
  1  7  4  0
  1 22  4  0
  2 17  4  0
  2 20  4  0
  2 28  4  0
  3  6  1  0
  3 19  1  0
  4 19  1  0
  4 26  1  0
  5 17  4  0
  5 18  4  0
  6 20  1  0
  6 26  1  0
  7 24  4  0
  8 15  4  0
  8 24  4  0
  9 14  4  0
  9 21  4  0
 10 12  4  0
 10 27  4  0
 11 12  4  0
 11 23  4  0
 13 23  4  0
 13 27  4  0
 14 20  4  0
 15 22  4  0
 16 18  4  0
 16 25  2  0
 16 28  4  0
 21 28  4  0
 24 27  1  0
M  END
$$$$

 Created by Python create_sdf_string function

 28 31  0  0  0  0  0  0  0  0999 V2000
   -1.0054  -13.0622   19.1198 C   0  0  0  0  0  0  0  0  0  0  0  0
    3.1478   -8.5360   28.5161 C   0  0  0  0  0  0  0  0  0  0  0  0
    0.5798   -7.1906   27.9330 C   0  0  0  0  0  0  0  0  0  0  0  0
    0.3978   -5.1561   26.6955 C   0  0  0  0  0  0  0  0  0  0  0  0
    2.3063  -10.0533   30.0125 C   0  0  0  0  0  0  0  0  0  0  0  0
    1.8591   -6.8254   27.4685 N   0  0  0  0  0  0  0  0  0  0  0  0
   -0.2167  -12.1055   18.5568 C   0  0  0  0  0  0  0  0  0  0  0  0
   -2.0661  -10.6994   18.1916 C   0  0  0  0  0  0  0  0  0  0  0  0
    5.2703   -7.5691   27.1123 C   0  0  0  0  0  0  0  0  0  0  0  0
    1.6204   -9.9887   17.2935 C   0  0  0  0  0  0  0  0  0  0  0  0
    1.8931   -7.9265   16.2047 C   0  0  0  0  0  0  0  0  0  0  0  0
    2.4396   -9.0801   16.7132 C   0  0  0  0  0  0  0  0  0  0  0  0
   -0.2575   -8.6234   16.8582 C   0  0  0  0  0  0  0  0  0  0  0  0
    4.0614   -7.0367   27.0106 N   0  0  0  0  0  0  0  0  0  0  0  0
   -2.9133  -11.6279   18.7578 C   0  0  0  0  0  0  0  0  0  0  0  0
    4.5688  -10.1291   29.5758 C   0  0  0  0  0  0  0  0  0  0  0  0
    2.1008   -9.0410   29.1852 N   0  0  0  0  0  0  0  0  0  0  0  0
    3.4829  -10.5697   30.2091 N   0  0  0  0  0  0  0  0  0  0  0  0
   -0.3363   -6.1172   27.5628 C   0  0  0  0  0  0  0  0  0  0  0  0
    3.0331   -7.4400   27.6362 C   0  0  0  0  0  0  0  0  0  0  0  0
    5.4553   -8.5933   27.9644 C   0  0  0  0  0  0  0  0  0  0  0  0
   -2.3870  -12.8440   19.2512 C   0  0  0  0  0  0  0  0  0  0  0  0
    0.5331   -7.6964   16.2751 C   0  0  0  0  0  0  0  0  0  0  0  0
   -0.6740  -10.8737   18.0482 C   0  0  0  0  0  0  0  0  0  0  0  0
    5.6751  -10.5870   29.7637 O   0  0  0  0  0  0  0  0  0  0  0  0
    1.7612   -5.6483   26.7172 C   0  0  0  0  0  0  0  0  0  0  0  0
    0.2221   -9.8326   17.4055 C   0  0  0  0  0  0  0  0  0  0  0  0
    4.3850   -9.0730   28.6745 C   0  0  0  0  0  0  0  0  0  0  0  0
  1  7  4  0
  1 22  4  0
  2 17  4  0
  2 20  4  0
  2 28  4  0
  3  6  1  0
  3 19  1  0
  4 19  1  0
  4 26  1  0
  5 17  4  0
  5 18  4  0
  6 20  1  0
  6 26  1  0
  7 24  4  0
  8 15  4  0
  8 24  4  0
  9 14  4  0
  9 21  4  0
 10 12  4  0
 10 27  4  0
 11 12  4  0
 11 23  4  0
 13 23  4  0
 13 27  4  0
 14 20  4  0
 15 22  4  0
 16 18  4  0
 16 25  2  0
 16 28  4  0
 21 28  4  0
 24 27  1  0
M  END
$$$$

 Created by Python create_sdf_string function

 28 31  0  0  0  0  0  0  0  0999 V2000
   -1.0054  -13.0622   19.1198 C   0  0  0  0  0  0  0  0  0  0  0  0
    3.1478   -8.5360   28.5161 C   0  0  0  0  0  0  0  0  0  0  0  0
    0.5798   -7.1906   27.9330 C   0  0  0  0  0  0  0  0  0  0  0  0
    0.3978   -5.1561   26.6955 C   0  0  0  0  0  0  0  0  0  0  0  0
    2.3063  -10.0533   30.0125 C   0  0  0  0  0  0  0  0  0  0  0  0
    1.8591   -6.8254   27.4685 N   0  0  0  0  0  0  0  0  0  0  0  0
   -0.2167  -12.1055   18.5568 C   0  0  0  0  0  0  0  0  0  0  0  0
   -2.0661  -10.6994   18.1916 C   0  0  0  0  0  0  0  0  0  0  0  0
    5.2703   -7.5691   27.1123 C   0  0  0  0  0  0  0  0  0  0  0  0
    1.6204   -9.9887   17.2935 C   0  0  0  0  0  0  0  0  0  0  0  0
    1.8931   -7.9265   16.2047 C   0  0  0  0  0  0  0  0  0  0  0  0
    2.4396   -9.0801   16.7132 C   0  0  0  0  0  0  0  0  0  0  0  0
   -0.2575   -8.6234   16.8582 C   0  0  0  0  0  0  0  0  0  0  0  0
    4.0614   -7.0367   27.0106 N   0  0  0  0  0  0  0  0  0  0  0  0
   -2.9133  -11.6279   18.7578 C   0  0  0  0  0  0  0  0  0  0  0  0
    4.5688  -10.1291   29.5758 C   0  0  0  0  0  0  0  0  0  0  0  0
    2.1008   -9.0410   29.1852 N   0  0  0  0  0  0  0  0  0  0  0  0
    3.4829  -10.5697   30.2091 N   0  0  0  0  0  0  0  0  0  0  0  0
   -0.3363   -6.1172   27.5628 C   0  0  0  0  0  0  0  0  0  0  0  0
    3.0331   -7.4400   27.6362 C   0  0  0  0  0  0  0  0  0  0  0  0
    5.4553   -8.5933   27.9644 C   0  0  0  0  0  0  0  0  0  0  0  0
   -2.3870  -12.8440   19.2512 C   0  0  0  0  0  0  0  0  0  0  0  0
    0.5331   -7.6964   16.2751 C   0  0  0  0  0  0  0  0  0  0  0  0
   -0.6740  -10.8737   18.0482 C   0  0  0  0  0  0  0  0  0  0  0  0
    5.6751  -10.5870   29.7637 O   0  0  0  0  0  0  0  0  0  0  0  0
    1.7612   -5.6483   26.7172 C   0  0  0  0  0  0  0  0  0  0  0  0
    0.2221   -9.8326   17.4055 C   0  0  0  0  0  0  0  0  0  0  0  0
    4.3850   -9.0730   28.6745 C   0  0  0  0  0  0  0  0  0  0  0  0
  1  7  4  0
  1 22  4  0
  2 17  4  0
  2 20  4  0
  2 28  4  0
  3  6  1  0
  3 19  1  0
  4 19  1  0
  4 26  1  0
  5 17  4  0
  5 18  4  0
  6 20  1  0
  6 26  1  0
  7 24  4  0
  8 15  4  0
  8 24  4  0
  9 14  4  0
  9 21  4  0
 10 12  4  0
 10 27  4  0
 11 12  4  0
 11 23  4  0
 13 23  4  0
 13 27  4  0
 14 20  4  0
 15 22  4  0
 16 18  4  0
 16 25  2  0
 16 28  4  0
 21 28  4  0
 24 27  1  0
M  END
$$$$

 Created by Python create_sdf_string function

 28 31  0  0  0  0  0  0  0  0999 V2000
   -1.0054  -13.0622   19.1198 C   0  0  0  0  0  0  0  0  0  0  0  0
    3.1478   -8.5360   28.5161 C   0  0  0  0  0  0  0  0  0  0  0  0
    0.5798   -7.1906   27.9330 C   0  0  0  0  0  0  0  0  0  0  0  0
    0.3978   -5.1561   26.6955 C   0  0  0  0  0  0  0  0  0  0  0  0
    2.3063  -10.0533   30.0125 C   0  0  0  0  0  0  0  0  0  0  0  0
    1.8591   -6.8254   27.4685 N   0  0  0  0  0  0  0  0  0  0  0  0
   -0.2167  -12.1055   18.5568 C   0  0  0  0  0  0  0  0  0  0  0  0
   -2.0661  -10.6994   18.1916 C   0  0  0  0  0  0  0  0  0  0  0  0
    5.2703   -7.5691   27.1123 C   0  0  0  0  0  0  0  0  0  0  0  0
    1.6204   -9.9887   17.2935 C   0  0  0  0  0  0  0  0  0  0  0  0
    1.8931   -7.9265   16.2047 C   0  0  0  0  0  0  0  0  0  0  0  0
    2.4396   -9.0801   16.7132 C   0  0  0  0  0  0  0  0  0  0  0  0
   -0.2575   -8.6234   16.8582 C   0  0  0  0  0  0  0  0  0  0  0  0
    4.0614   -7.0367   27.0106 N   0  0  0  0  0  0  0  0  0  0  0  0
   -2.9133  -11.6279   18.7578 C   0  0  0  0  0  0  0  0  0  0  0  0
    4.5688  -10.1291   29.5758 C   0  0  0  0  0  0  0  0  0  0  0  0
    2.1008   -9.0410   29.1852 N   0  0  0  0  0  0  0  0  0  0  0  0
    3.4829  -10.5697   30.2091 N   0  0  0  0  0  0  0  0  0  0  0  0
   -0.3363   -6.1172   27.5628 C   0  0  0  0  0  0  0  0  0  0  0  0
    3.0331   -7.4400   27.6362 C   0  0  0  0  0  0  0  0  0  0  0  0
    5.4553   -8.5933   27.9644 C   0  0  0  0  0  0  0  0  0  0  0  0
   -2.3870  -12.8440   19.2512 C   0  0  0  0  0  0  0  0  0  0  0  0
    0.5331   -7.6964   16.2751 C   0  0  0  0  0  0  0  0  0  0  0  0
   -0.6740  -10.8737   18.0482 C   0  0  0  0  0  0  0  0  0  0  0  0
    5.6751  -10.5870   29.7637 O   0  0  0  0  0  0  0  0  0  0  0  0
    1.7612   -5.6483   26.7172 C   0  0  0  0  0  0  0  0  0  0  0  0
    0.2221   -9.8326   17.4055 C   0  0  0  0  0  0  0  0  0  0  0  0
    4.3850   -9.0730   28.6745 C   0  0  0  0  0  0  0  0  0  0  0  0
  1  7  4  0
  1 22  4  0
  2 17  4  0
  2 20  4  0
  2 28  4  0
  3  6  1  0
  3 19  1  0
  4 19  1  0
  4 26  1  0
  5 17  4  0
  5 18  4  0
  6 20  1  0
  6 26  1  0
  7 24  4  0
  8 15  4  0
  8 24  4  0
  9 14  4  0
  9 21  4  0
 10 12  4  0
 10 27  4  0
 11 12  4  0
 11 23  4  0
 13 23  4  0
 13 27  4  0
 14 20  4  0
 15 22  4  0
 16 18  4  0
 16 25  2  0
 16 28  4  0
 21 28  4  0
 24 27  1  0
M  END
$$$$

 Created by Python create_sdf_string function

 28 31  0  0  0  0  0  0  0  0999 V2000
   -1.0054  -13.0622   19.1198 C   0  0  0  0  0  0  0  0  0  0  0  0
    3.1478   -8.5360   28.5161 C   0  0  0  0  0  0  0  0  0  0  0  0
    0.5798   -7.1906   27.9330 C   0  0  0  0  0  0  0  0  0  0  0  0
    0.3978   -5.1561   26.6955 C   0  0  0  0  0  0  0  0  0  0  0  0
    2.3063  -10.0533   30.0125 C   0  0  0  0  0  0  0  0  0  0  0  0
    1.8591   -6.8254   27.4685 N   0  0  0  0  0  0  0  0  0  0  0  0
   -0.2167  -12.1055   18.5568 C   0  0  0  0  0  0  0  0  0  0  0  0
   -2.0661  -10.6994   18.1916 C   0  0  0  0  0  0  0  0  0  0  0  0
    5.2703   -7.5691   27.1123 C   0  0  0  0  0  0  0  0  0  0  0  0
    1.6204   -9.9887   17.2935 C   0  0  0  0  0  0  0  0  0  0  0  0
    1.8931   -7.9265   16.2047 C   0  0  0  0  0  0  0  0  0  0  0  0
    2.4396   -9.0801   16.7132 C   0  0  0  0  0  0  0  0  0  0  0  0
   -0.2575   -8.6234   16.8582 C   0  0  0  0  0  0  0  0  0  0  0  0
    4.0614   -7.0367   27.0106 N   0  0  0  0  0  0  0  0  0  0  0  0
   -2.9133  -11.6279   18.7578 C   0  0  0  0  0  0  0  0  0  0  0  0
    4.5688  -10.1291   29.5758 C   0  0  0  0  0  0  0  0  0  0  0  0
    2.1008   -9.0410   29.1852 N   0  0  0  0  0  0  0  0  0  0  0  0
    3.4829  -10.5697   30.2091 N   0  0  0  0  0  0  0  0  0  0  0  0
   -0.3363   -6.1172   27.5628 C   0  0  0  0  0  0  0  0  0  0  0  0
    3.0331   -7.4400   27.6362 C   0  0  0  0  0  0  0  0  0  0  0  0
    5.4553   -8.5933   27.9644 C   0  0  0  0  0  0  0  0  0  0  0  0
   -2.3870  -12.8440   19.2512 C   0  0  0  0  0  0  0  0  0  0  0  0
    0.5331   -7.6964   16.2751 C   0  0  0  0  0  0  0  0  0  0  0  0
   -0.6740  -10.8737   18.0482 C   0  0  0  0  0  0  0  0  0  0  0  0
    5.6751  -10.5870   29.7637 O   0  0  0  0  0  0  0  0  0  0  0  0
    1.7612   -5.6483   26.7172 C   0  0  0  0  0  0  0  0  0  0  0  0
    0.2221   -9.8326   17.4055 C   0  0  0  0  0  0  0  0  0  0  0  0
    4.3850   -9.0730   28.6745 C   0  0  0  0  0  0  0  0  0  0  0  0
  1  7  4  0
  1 22  4  0
  2 17  4  0
  2 20  4  0
  2 28  4  0
  3  6  1  0
  3 19  1  0
  4 19  1  0
  4 26  1  0
  5 17  4  0
  5 18  4  0
  6 20  1  0
  6 26  1  0
  7 24  4  0
  8 15  4  0
  8 24  4  0
  9 14  4  0
  9 21  4  0
 10 12  4  0
 10 27  4  0
 11 12  4  0
 11 23  4  0
 13 23  4  0
 13 27  4  0
 14 20  4  0
 15 22  4  0
 16 18  4  0
 16 25  2  0
 16 28  4  0
 21 28  4  0
 24 27  1  0
M  END
$$$$

 Created by Python create_sdf_string function

 28 31  0  0  0  0  0  0  0  0999 V2000
   -1.0054  -13.0622   19.1198 C   0  0  0  0  0  0  0  0  0  0  0  0
    3.1478   -8.5360   28.5161 C   0  0  0  0  0  0  0  0  0  0  0  0
    0.5798   -7.1906   27.9330 C   0  0  0  0  0  0  0  0  0  0  0  0
    0.3978   -5.1561   26.6955 C   0  0  0  0  0  0  0  0  0  0  0  0
    2.3063  -10.0533   30.0125 C   0  0  0  0  0  0  0  0  0  0  0  0
    1.8591   -6.8254   27.4685 N   0  0  0  0  0  0  0  0  0  0  0  0
   -0.2167  -12.1055   18.5568 C   0  0  0  0  0  0  0  0  0  0  0  0
   -2.0661  -10.6994   18.1916 C   0  0  0  0  0  0  0  0  0  0  0  0
    5.2703   -7.5691   27.1123 C   0  0  0  0  0  0  0  0  0  0  0  0
    1.6204   -9.9887   17.2935 C   0  0  0  0  0  0  0  0  0  0  0  0
    1.8931   -7.9265   16.2047 C   0  0  0  0  0  0  0  0  0  0  0  0
    2.4396   -9.0801   16.7132 C   0  0  0  0  0  0  0  0  0  0  0  0
   -0.2575   -8.6234   16.8582 C   0  0  0  0  0  0  0  0  0  0  0  0
    4.0614   -7.0367   27.0106 N   0  0  0  0  0  0  0  0  0  0  0  0
   -2.9133  -11.6279   18.7578 C   0  0  0  0  0  0  0  0  0  0  0  0
    4.5688  -10.1291   29.5758 C   0  0  0  0  0  0  0  0  0  0  0  0
    2.1008   -9.0410   29.1852 N   0  0  0  0  0  0  0  0  0  0  0  0
    3.4829  -10.5697   30.2091 N   0  0  0  0  0  0  0  0  0  0  0  0
   -0.3363   -6.1172   27.5628 C   0  0  0  0  0  0  0  0  0  0  0  0
    3.0331   -7.4400   27.6362 C   0  0  0  0  0  0  0  0  0  0  0  0
    5.4553   -8.5933   27.9644 C   0  0  0  0  0  0  0  0  0  0  0  0
   -2.3870  -12.8440   19.2512 C   0  0  0  0  0  0  0  0  0  0  0  0
    0.5331   -7.6964   16.2751 C   0  0  0  0  0  0  0  0  0  0  0  0
   -0.6740  -10.8737   18.0482 C   0  0  0  0  0  0  0  0  0  0  0  0
    5.6751  -10.5870   29.7637 O   0  0  0  0  0  0  0  0  0  0  0  0
    1.7612   -5.6483   26.7172 C   0  0  0  0  0  0  0  0  0  0  0  0
    0.2221   -9.8326   17.4055 C   0  0  0  0  0  0  0  0  0  0  0  0
    4.3850   -9.0730   28.6745 C   0  0  0  0  0  0  0  0  0  0  0  0
  1  7  4  0
  1 22  4  0
  2 17  4  0
  2 20  4  0
  2 28  4  0
  3  6  1  0
  3 19  1  0
  4 19  1  0
  4 26  1  0
  5 17  4  0
  5 18  4  0
  6 20  1  0
  6 26  1  0
  7 24  4  0
  8 15  4  0
  8 24  4  0
  9 14  4  0
  9 21  4  0
 10 12  4  0
 10 27  4  0
 11 12  4  0
 11 23  4  0
 13 23  4  0
 13 27  4  0
 14 20  4  0
 15 22  4  0
 16 18  4  0
 16 25  2  0
 16 28  4  0
 21 28  4  0
 24 27  1  0
M  END
$$$$

 Created by Python create_sdf_string function

 28 31  0  0  0  0  0  0  0  0999 V2000
   -1.0054  -13.0622   19.1198 C   0  0  0  0  0  0  0  0  0  0  0  0
    3.1478   -8.5360   28.5161 C   0  0  0  0  0  0  0  0  0  0  0  0
    0.5798   -7.1906   27.9330 C   0  0  0  0  0  0  0  0  0  0  0  0
    0.3978   -5.1561   26.6955 C   0  0  0  0  0  0  0  0  0  0  0  0
    2.3063  -10.0533   30.0125 C   0  0  0  0  0  0  0  0  0  0  0  0
    1.8591   -6.8254   27.4685 N   0  0  0  0  0  0  0  0  0  0  0  0
   -0.2167  -12.1055   18.5568 C   0  0  0  0  0  0  0  0  0  0  0  0
   -2.0661  -10.6994   18.1916 C   0  0  0  0  0  0  0  0  0  0  0  0
    5.2703   -7.5691   27.1123 C   0  0  0  0  0  0  0  0  0  0  0  0
    1.6204   -9.9887   17.2935 C   0  0  0  0  0  0  0  0  0  0  0  0
    1.8931   -7.9265   16.2047 C   0  0  0  0  0  0  0  0  0  0  0  0
    2.4396   -9.0801   16.7132 C   0  0  0  0  0  0  0  0  0  0  0  0
   -0.2575   -8.6234   16.8582 C   0  0  0  0  0  0  0  0  0  0  0  0
    4.0614   -7.0367   27.0106 N   0  0  0  0  0  0  0  0  0  0  0  0
   -2.9133  -11.6279   18.7578 C   0  0  0  0  0  0  0  0  0  0  0  0
    4.5688  -10.1291   29.5758 C   0  0  0  0  0  0  0  0  0  0  0  0
    2.1008   -9.0410   29.1852 N   0  0  0  0  0  0  0  0  0  0  0  0
    3.4829  -10.5697   30.2091 N   0  0  0  0  0  0  0  0  0  0  0  0
   -0.3363   -6.1172   27.5628 C   0  0  0  0  0  0  0  0  0  0  0  0
    3.0331   -7.4400   27.6362 C   0  0  0  0  0  0  0  0  0  0  0  0
    5.4553   -8.5933   27.9644 C   0  0  0  0  0  0  0  0  0  0  0  0
   -2.3870  -12.8440   19.2512 C   0  0  0  0  0  0  0  0  0  0  0  0
    0.5331   -7.6964   16.2751 C   0  0  0  0  0  0  0  0  0  0  0  0
   -0.6740  -10.8737   18.0482 C   0  0  0  0  0  0  0  0  0  0  0  0
    5.6751  -10.5870   29.7637 O   0  0  0  0  0  0  0  0  0  0  0  0
    1.7612   -5.6483   26.7172 C   0  0  0  0  0  0  0  0  0  0  0  0
    0.2221   -9.8326   17.4055 C   0  0  0  0  0  0  0  0  0  0  0  0
    4.3850   -9.0730   28.6745 C   0  0  0  0  0  0  0  0  0  0  0  0
  1  7  4  0
  1 22  4  0
  2 17  4  0
  2 20  4  0
  2 28  4  0
  3  6  1  0
  3 19  1  0
  4 19  1  0
  4 26  1  0
  5 17  4  0
  5 18  4  0
  6 20  1  0
  6 26  1  0
  7 24  4  0
  8 15  4  0
  8 24  4  0
  9 14  4  0
  9 21  4  0
 10 12  4  0
 10 27  4  0
 11 12  4  0
 11 23  4  0
 13 23  4  0
 13 27  4  0
 14 20  4  0
 15 22  4  0
 16 18  4  0
 16 25  2  0
 16 28  4  0
 21 28  4  0
 24 27  1  0
M  END
$$$$

 Created by Python create_sdf_string function

 28 31  0  0  0  0  0  0  0  0999 V2000
   -1.0054  -13.0622   19.1198 C   0  0  0  0  0  0  0  0  0  0  0  0
    3.1478   -8.5360   28.5161 C   0  0  0  0  0  0  0  0  0  0  0  0
    0.5798   -7.1906   27.9330 C   0  0  0  0  0  0  0  0  0  0  0  0
    0.3978   -5.1561   26.6955 C   0  0  0  0  0  0  0  0  0  0  0  0
    2.3063  -10.0533   30.0125 C   0  0  0  0  0  0  0  0  0  0  0  0
    1.8591   -6.8254   27.4685 N   0  0  0  0  0  0  0  0  0  0  0  0
   -0.2167  -12.1055   18.5568 C   0  0  0  0  0  0  0  0  0  0  0  0
   -2.0661  -10.6994   18.1916 C   0  0  0  0  0  0  0  0  0  0  0  0
    5.2703   -7.5691   27.1123 C   0  0  0  0  0  0  0  0  0  0  0  0
    1.6204   -9.9887   17.2935 C   0  0  0  0  0  0  0  0  0  0  0  0
    1.8931   -7.9265   16.2047 C   0  0  0  0  0  0  0  0  0  0  0  0
    2.4396   -9.0801   16.7132 C   0  0  0  0  0  0  0  0  0  0  0  0
   -0.2575   -8.6234   16.8582 C   0  0  0  0  0  0  0  0  0  0  0  0
    4.0614   -7.0367   27.0106 N   0  0  0  0  0  0  0  0  0  0  0  0
   -2.9133  -11.6279   18.7578 C   0  0  0  0  0  0  0  0  0  0  0  0
    4.5688  -10.1291   29.5758 C   0  0  0  0  0  0  0  0  0  0  0  0
    2.1008   -9.0410   29.1852 N   0  0  0  0  0  0  0  0  0  0  0  0
    3.4829  -10.5697   30.2091 N   0  0  0  0  0  0  0  0  0  0  0  0
   -0.3363   -6.1172   27.5628 C   0  0  0  0  0  0  0  0  0  0  0  0
    3.0331   -7.4400   27.6362 C   0  0  0  0  0  0  0  0  0  0  0  0
    5.4553   -8.5933   27.9644 C   0  0  0  0  0  0  0  0  0  0  0  0
   -2.3870  -12.8440   19.2512 C   0  0  0  0  0  0  0  0  0  0  0  0
    0.5331   -7.6964   16.2751 C   0  0  0  0  0  0  0  0  0  0  0  0
   -0.6740  -10.8737   18.0482 C   0  0  0  0  0  0  0  0  0  0  0  0
    5.6751  -10.5870   29.7637 O   0  0  0  0  0  0  0  0  0  0  0  0
    1.7612   -5.6483   26.7172 C   0  0  0  0  0  0  0  0  0  0  0  0
    0.2221   -9.8326   17.4055 C   0  0  0  0  0  0  0  0  0  0  0  0
    4.3850   -9.0730   28.6745 C   0  0  0  0  0  0  0  0  0  0  0  0
  1  7  4  0
  1 22  4  0
  2 17  4  0
  2 20  4  0
  2 28  4  0
  3  6  1  0
  3 19  1  0
  4 19  1  0
  4 26  1  0
  5 17  4  0
  5 18  4  0
  6 20  1  0
  6 26  1  0
  7 24  4  0
  8 15  4  0
  8 24  4  0
  9 14  4  0
  9 21  4  0
 10 12  4  0
 10 27  4  0
 11 12  4  0
 11 23  4  0
 13 23  4  0
 13 27  4  0
 14 20  4  0
 15 22  4  0
 16 18  4  0
 16 25  2  0
 16 28  4  0
 21 28  4  0
 24 27  1  0
M  END
$$$$

 Created by Python create_sdf_string function

 28 31  0  0  0  0  0  0  0  0999 V2000
   -1.0054  -13.0622   19.1198 C   0  0  0  0  0  0  0  0  0  0  0  0
    3.1478   -8.5360   28.5161 C   0  0  0  0  0  0  0  0  0  0  0  0
    0.5798   -7.1906   27.9330 C   0  0  0  0  0  0  0  0  0  0  0  0
    0.3978   -5.1561   26.6955 C   0  0  0  0  0  0  0  0  0  0  0  0
    2.3063  -10.0533   30.0125 C   0  0  0  0  0  0  0  0  0  0  0  0
    1.8591   -6.8254   27.4685 N   0  0  0  0  0  0  0  0  0  0  0  0
   -0.2167  -12.1055   18.5568 C   0  0  0  0  0  0  0  0  0  0  0  0
   -2.0661  -10.6994   18.1916 C   0  0  0  0  0  0  0  0  0  0  0  0
    5.2703   -7.5691   27.1123 C   0  0  0  0  0  0  0  0  0  0  0  0
    1.6204   -9.9887   17.2935 C   0  0  0  0  0  0  0  0  0  0  0  0
    1.8931   -7.9265   16.2047 C   0  0  0  0  0  0  0  0  0  0  0  0
    2.4396   -9.0801   16.7132 C   0  0  0  0  0  0  0  0  0  0  0  0
   -0.2575   -8.6234   16.8582 C   0  0  0  0  0  0  0  0  0  0  0  0
    4.0614   -7.0367   27.0106 N   0  0  0  0  0  0  0  0  0  0  0  0
   -2.9133  -11.6279   18.7578 C   0  0  0  0  0  0  0  0  0  0  0  0
    4.5688  -10.1291   29.5758 C   0  0  0  0  0  0  0  0  0  0  0  0
    2.1008   -9.0410   29.1852 N   0  0  0  0  0  0  0  0  0  0  0  0
    3.4829  -10.5697   30.2091 N   0  0  0  0  0  0  0  0  0  0  0  0
   -0.3363   -6.1172   27.5628 C   0  0  0  0  0  0  0  0  0  0  0  0
    3.0331   -7.4400   27.6362 C   0  0  0  0  0  0  0  0  0  0  0  0
    5.4553   -8.5933   27.9644 C   0  0  0  0  0  0  0  0  0  0  0  0
   -2.3870  -12.8440   19.2512 C   0  0  0  0  0  0  0  0  0  0  0  0
    0.5331   -7.6964   16.2751 C   0  0  0  0  0  0  0  0  0  0  0  0
   -0.6740  -10.8737   18.0482 C   0  0  0  0  0  0  0  0  0  0  0  0
    5.6751  -10.5870   29.7637 O   0  0  0  0  0  0  0  0  0  0  0  0
    1.7612   -5.6483   26.7172 C   0  0  0  0  0  0  0  0  0  0  0  0
    0.2221   -9.8326   17.4055 C   0  0  0  0  0  0  0  0  0  0  0  0
    4.3850   -9.0730   28.6745 C   0  0  0  0  0  0  0  0  0  0  0  0
  1  7  4  0
  1 22  4  0
  2 17  4  0
  2 20  4  0
  2 28  4  0
  3  6  1  0
  3 19  1  0
  4 19  1  0
  4 26  1  0
  5 17  4  0
  5 18  4  0
  6 20  1  0
  6 26  1  0
  7 24  4  0
  8 15  4  0
  8 24  4  0
  9 14  4  0
  9 21  4  0
 10 12  4  0
 10 27  4  0
 11 12  4  0
 11 23  4  0
 13 23  4  0
 13 27  4  0
 14 20  4  0
 15 22  4  0
 16 18  4  0
 16 25  2  0
 16 28  4  0
 21 28  4  0
 24 27  1  0
M  END
$$$$

 Created by Python create_sdf_string function

 28 31  0  0  0  0  0  0  0  0999 V2000
   -1.0054  -13.0622   19.1198 C   0  0  0  0  0  0  0  0  0  0  0  0
    3.1478   -8.5360   28.5161 C   0  0  0  0  0  0  0  0  0  0  0  0
    0.5798   -7.1906   27.9330 C   0  0  0  0  0  0  0  0  0  0  0  0
    0.3978   -5.1561   26.6955 C   0  0  0  0  0  0  0  0  0  0  0  0
    2.3063  -10.0533   30.0125 C   0  0  0  0  0  0  0  0  0  0  0  0
    1.8591   -6.8254   27.4685 N   0  0  0  0  0  0  0  0  0  0  0  0
   -0.2167  -12.1055   18.5568 C   0  0  0  0  0  0  0  0  0  0  0  0
   -2.0661  -10.6994   18.1916 C   0  0  0  0  0  0  0  0  0  0  0  0
    5.2703   -7.5691   27.1123 C   0  0  0  0  0  0  0  0  0  0  0  0
    1.6204   -9.9887   17.2935 C   0  0  0  0  0  0  0  0  0  0  0  0
    1.8931   -7.9265   16.2047 C   0  0  0  0  0  0  0  0  0  0  0  0
    2.4396   -9.0801   16.7132 C   0  0  0  0  0  0  0  0  0  0  0  0
   -0.2575   -8.6234   16.8582 C   0  0  0  0  0  0  0  0  0  0  0  0
    4.0614   -7.0367   27.0106 N   0  0  0  0  0  0  0  0  0  0  0  0
   -2.9133  -11.6279   18.7578 C   0  0  0  0  0  0  0  0  0  0  0  0
    4.5688  -10.1291   29.5758 C   0  0  0  0  0  0  0  0  0  0  0  0
    2.1008   -9.0410   29.1852 N   0  0  0  0  0  0  0  0  0  0  0  0
    3.4829  -10.5697   30.2091 N   0  0  0  0  0  0  0  0  0  0  0  0
   -0.3363   -6.1172   27.5628 C   0  0  0  0  0  0  0  0  0  0  0  0
    3.0331   -7.4400   27.6362 C   0  0  0  0  0  0  0  0  0  0  0  0
    5.4553   -8.5933   27.9644 C   0  0  0  0  0  0  0  0  0  0  0  0
   -2.3870  -12.8440   19.2512 C   0  0  0  0  0  0  0  0  0  0  0  0
    0.5331   -7.6964   16.2751 C   0  0  0  0  0  0  0  0  0  0  0  0
   -0.6740  -10.8737   18.0482 C   0  0  0  0  0  0  0  0  0  0  0  0
    5.6751  -10.5870   29.7637 O   0  0  0  0  0  0  0  0  0  0  0  0
    1.7612   -5.6483   26.7172 C   0  0  0  0  0  0  0  0  0  0  0  0
    0.2221   -9.8326   17.4055 C   0  0  0  0  0  0  0  0  0  0  0  0
    4.3850   -9.0730   28.6745 C   0  0  0  0  0  0  0  0  0  0  0  0
  1  7  4  0
  1 22  4  0
  2 17  4  0
  2 20  4  0
  2 28  4  0
  3  6  1  0
  3 19  1  0
  4 19  1  0
  4 26  1  0
  5 17  4  0
  5 18  4  0
  6 20  1  0
  6 26  1  0
  7 24  4  0
  8 15  4  0
  8 24  4  0
  9 14  4  0
  9 21  4  0
 10 12  4  0
 10 27  4  0
 11 12  4  0
 11 23  4  0
 13 23  4  0
 13 27  4  0
 14 20  4  0
 15 22  4  0
 16 18  4  0
 16 25  2  0
 16 28  4  0
 21 28  4  0
 24 27  1  0
M  END
$$$$

 Created by Python create_sdf_string function

 28 31  0  0  0  0  0  0  0  0999 V2000
   -1.0054  -13.0622   19.1198 C   0  0  0  0  0  0  0  0  0  0  0  0
    3.1478   -8.5360   28.5161 C   0  0  0  0  0  0  0  0  0  0  0  0
    0.5798   -7.1906   27.9330 C   0  0  0  0  0  0  0  0  0  0  0  0
    0.3978   -5.1561   26.6955 C   0  0  0  0  0  0  0  0  0  0  0  0
    2.3063  -10.0533   30.0125 C   0  0  0  0  0  0  0  0  0  0  0  0
    1.8591   -6.8254   27.4685 N   0  0  0  0  0  0  0  0  0  0  0  0
   -0.2167  -12.1055   18.5568 C   0  0  0  0  0  0  0  0  0  0  0  0
   -2.0661  -10.6994   18.1916 C   0  0  0  0  0  0  0  0  0  0  0  0
    5.2703   -7.5691   27.1123 C   0  0  0  0  0  0  0  0  0  0  0  0
    1.6204   -9.9887   17.2935 C   0  0  0  0  0  0  0  0  0  0  0  0
    1.8931   -7.9265   16.2047 C   0  0  0  0  0  0  0  0  0  0  0  0
    2.4396   -9.0801   16.7132 C   0  0  0  0  0  0  0  0  0  0  0  0
   -0.2575   -8.6234   16.8582 C   0  0  0  0  0  0  0  0  0  0  0  0
    4.0614   -7.0367   27.0106 N   0  0  0  0  0  0  0  0  0  0  0  0
   -2.9133  -11.6279   18.7578 C   0  0  0  0  0  0  0  0  0  0  0  0
    4.5688  -10.1291   29.5758 C   0  0  0  0  0  0  0  0  0  0  0  0
    2.1008   -9.0410   29.1852 N   0  0  0  0  0  0  0  0  0  0  0  0
    3.4829  -10.5697   30.2091 N   0  0  0  0  0  0  0  0  0  0  0  0
   -0.3363   -6.1172   27.5628 C   0  0  0  0  0  0  0  0  0  0  0  0
    3.0331   -7.4400   27.6362 C   0  0  0  0  0  0  0  0  0  0  0  0
    5.4553   -8.5933   27.9644 C   0  0  0  0  0  0  0  0  0  0  0  0
   -2.3870  -12.8440   19.2512 C   0  0  0  0  0  0  0  0  0  0  0  0
    0.5331   -7.6964   16.2751 C   0  0  0  0  0  0  0  0  0  0  0  0
   -0.6740  -10.8737   18.0482 C   0  0  0  0  0  0  0  0  0  0  0  0
    5.6751  -10.5870   29.7637 O   0  0  0  0  0  0  0  0  0  0  0  0
    1.7612   -5.6483   26.7172 C   0  0  0  0  0  0  0  0  0  0  0  0
    0.2221   -9.8326   17.4055 C   0  0  0  0  0  0  0  0  0  0  0  0
    4.3850   -9.0730   28.6745 C   0  0  0  0  0  0  0  0  0  0  0  0
  1  7  4  0
  1 22  4  0
  2 17  4  0
  2 20  4  0
  2 28  4  0
  3  6  1  0
  3 19  1  0
  4 19  1  0
  4 26  1  0
  5 17  4  0
  5 18  4  0
  6 20  1  0
  6 26  1  0
  7 24  4  0
  8 15  4  0
  8 24  4  0
  9 14  4  0
  9 21  4  0
 10 12  4  0
 10 27  4  0
 11 12  4  0
 11 23  4  0
 13 23  4  0
 13 27  4  0
 14 20  4  0
 15 22  4  0
 16 18  4  0
 16 25  2  0
 16 28  4  0
 21 28  4  0
 24 27  1  0
M  END
$$$$

 Created by Python create_sdf_string function

 28 31  0  0  0  0  0  0  0  0999 V2000
   -1.0054  -13.0622   19.1198 C   0  0  0  0  0  0  0  0  0  0  0  0
    3.1478   -8.5360   28.5161 C   0  0  0  0  0  0  0  0  0  0  0  0
    0.5798   -7.1906   27.9330 C   0  0  0  0  0  0  0  0  0  0  0  0
    0.3978   -5.1561   26.6955 C   0  0  0  0  0  0  0  0  0  0  0  0
    2.3063  -10.0533   30.0125 C   0  0  0  0  0  0  0  0  0  0  0  0
    1.8591   -6.8254   27.4685 N   0  0  0  0  0  0  0  0  0  0  0  0
   -0.2167  -12.1055   18.5568 C   0  0  0  0  0  0  0  0  0  0  0  0
   -2.0661  -10.6994   18.1916 C   0  0  0  0  0  0  0  0  0  0  0  0
    5.2703   -7.5691   27.1123 C   0  0  0  0  0  0  0  0  0  0  0  0
    1.6204   -9.9887   17.2935 C   0  0  0  0  0  0  0  0  0  0  0  0
    1.8931   -7.9265   16.2047 C   0  0  0  0  0  0  0  0  0  0  0  0
    2.4396   -9.0801   16.7132 C   0  0  0  0  0  0  0  0  0  0  0  0
   -0.2575   -8.6234   16.8582 C   0  0  0  0  0  0  0  0  0  0  0  0
    4.0614   -7.0367   27.0106 N   0  0  0  0  0  0  0  0  0  0  0  0
   -2.9133  -11.6279   18.7578 C   0  0  0  0  0  0  0  0  0  0  0  0
    4.5688  -10.1291   29.5758 C   0  0  0  0  0  0  0  0  0  0  0  0
    2.1008   -9.0410   29.1852 N   0  0  0  0  0  0  0  0  0  0  0  0
    3.4829  -10.5697   30.2091 N   0  0  0  0  0  0  0  0  0  0  0  0
   -0.3363   -6.1172   27.5628 C   0  0  0  0  0  0  0  0  0  0  0  0
    3.0331   -7.4400   27.6362 C   0  0  0  0  0  0  0  0  0  0  0  0
    5.4553   -8.5933   27.9644 C   0  0  0  0  0  0  0  0  0  0  0  0
   -2.3870  -12.8440   19.2512 C   0  0  0  0  0  0  0  0  0  0  0  0
    0.5331   -7.6964   16.2751 C   0  0  0  0  0  0  0  0  0  0  0  0
   -0.6740  -10.8737   18.0482 C   0  0  0  0  0  0  0  0  0  0  0  0
    5.6751  -10.5870   29.7637 O   0  0  0  0  0  0  0  0  0  0  0  0
    1.7612   -5.6483   26.7172 C   0  0  0  0  0  0  0  0  0  0  0  0
    0.2221   -9.8326   17.4055 C   0  0  0  0  0  0  0  0  0  0  0  0
    4.3850   -9.0730   28.6745 C   0  0  0  0  0  0  0  0  0  0  0  0
  1  7  4  0
  1 22  4  0
  2 17  4  0
  2 20  4  0
  2 28  4  0
  3  6  1  0
  3 19  1  0
  4 19  1  0
  4 26  1  0
  5 17  4  0
  5 18  4  0
  6 20  1  0
  6 26  1  0
  7 24  4  0
  8 15  4  0
  8 24  4  0
  9 14  4  0
  9 21  4  0
 10 12  4  0
 10 27  4  0
 11 12  4  0
 11 23  4  0
 13 23  4  0
 13 27  4  0
 14 20  4  0
 15 22  4  0
 16 18  4  0
 16 25  2  0
 16 28  4  0
 21 28  4  0
 24 27  1  0
M  END
$$$$

 Created by Python create_sdf_string function

 28 31  0  0  0  0  0  0  0  0999 V2000
   -1.0054  -13.0622   19.1198 C   0  0  0  0  0  0  0  0  0  0  0  0
    3.1478   -8.5360   28.5161 C   0  0  0  0  0  0  0  0  0  0  0  0
    0.5798   -7.1906   27.9330 C   0  0  0  0  0  0  0  0  0  0  0  0
    0.3978   -5.1561   26.6955 C   0  0  0  0  0  0  0  0  0  0  0  0
    2.3063  -10.0533   30.0125 C   0  0  0  0  0  0  0  0  0  0  0  0
    1.8591   -6.8254   27.4685 N   0  0  0  0  0  0  0  0  0  0  0  0
   -0.2167  -12.1055   18.5568 C   0  0  0  0  0  0  0  0  0  0  0  0
   -2.0661  -10.6994   18.1916 C   0  0  0  0  0  0  0  0  0  0  0  0
    5.2703   -7.5691   27.1123 C   0  0  0  0  0  0  0  0  0  0  0  0
    1.6204   -9.9887   17.2935 C   0  0  0  0  0  0  0  0  0  0  0  0
    1.8931   -7.9265   16.2047 C   0  0  0  0  0  0  0  0  0  0  0  0
    2.4396   -9.0801   16.7132 C   0  0  0  0  0  0  0  0  0  0  0  0
   -0.2575   -8.6234   16.8582 C   0  0  0  0  0  0  0  0  0  0  0  0
    4.0614   -7.0367   27.0106 N   0  0  0  0  0  0  0  0  0  0  0  0
   -2.9133  -11.6279   18.7578 C   0  0  0  0  0  0  0  0  0  0  0  0
    4.5688  -10.1291   29.5758 C   0  0  0  0  0  0  0  0  0  0  0  0
    2.1008   -9.0410   29.1852 N   0  0  0  0  0  0  0  0  0  0  0  0
    3.4829  -10.5697   30.2091 N   0  0  0  0  0  0  0  0  0  0  0  0
   -0.3363   -6.1172   27.5628 C   0  0  0  0  0  0  0  0  0  0  0  0
    3.0331   -7.4400   27.6362 C   0  0  0  0  0  0  0  0  0  0  0  0
    5.4553   -8.5933   27.9644 C   0  0  0  0  0  0  0  0  0  0  0  0
   -2.3870  -12.8440   19.2512 C   0  0  0  0  0  0  0  0  0  0  0  0
    0.5331   -7.6964   16.2751 C   0  0  0  0  0  0  0  0  0  0  0  0
   -0.6740  -10.8737   18.0482 C   0  0  0  0  0  0  0  0  0  0  0  0
    5.6751  -10.5870   29.7637 O   0  0  0  0  0  0  0  0  0  0  0  0
    1.7612   -5.6483   26.7172 C   0  0  0  0  0  0  0  0  0  0  0  0
    0.2221   -9.8326   17.4055 C   0  0  0  0  0  0  0  0  0  0  0  0
    4.3850   -9.0730   28.6745 C   0  0  0  0  0  0  0  0  0  0  0  0
  1  7  4  0
  1 22  4  0
  2 17  4  0
  2 20  4  0
  2 28  4  0
  3  6  1  0
  3 19  1  0
  4 19  1  0
  4 26  1  0
  5 17  4  0
  5 18  4  0
  6 20  1  0
  6 26  1  0
  7 24  4  0
  8 15  4  0
  8 24  4  0
  9 14  4  0
  9 21  4  0
 10 12  4  0
 10 27  4  0
 11 12  4  0
 11 23  4  0
 13 23  4  0
 13 27  4  0
 14 20  4  0
 15 22  4  0
 16 18  4  0
 16 25  2  0
 16 28  4  0
 21 28  4  0
 24 27  1  0
M  END
$$$$

 Created by Python create_sdf_string function

 28 31  0  0  0  0  0  0  0  0999 V2000
   -1.0054  -13.0622   19.1198 C   0  0  0  0  0  0  0  0  0  0  0  0
    3.1478   -8.5360   28.5161 C   0  0  0  0  0  0  0  0  0  0  0  0
    0.5798   -7.1906   27.9330 C   0  0  0  0  0  0  0  0  0  0  0  0
    0.3978   -5.1561   26.6955 C   0  0  0  0  0  0  0  0  0  0  0  0
    2.3063  -10.0533   30.0125 C   0  0  0  0  0  0  0  0  0  0  0  0
    1.8591   -6.8254   27.4685 N   0  0  0  0  0  0  0  0  0  0  0  0
   -0.2167  -12.1055   18.5568 C   0  0  0  0  0  0  0  0  0  0  0  0
   -2.0661  -10.6994   18.1916 C   0  0  0  0  0  0  0  0  0  0  0  0
    5.2703   -7.5691   27.1123 C   0  0  0  0  0  0  0  0  0  0  0  0
    1.6204   -9.9887   17.2935 C   0  0  0  0  0  0  0  0  0  0  0  0
    1.8931   -7.9265   16.2047 C   0  0  0  0  0  0  0  0  0  0  0  0
    2.4396   -9.0801   16.7132 C   0  0  0  0  0  0  0  0  0  0  0  0
   -0.2575   -8.6234   16.8582 C   0  0  0  0  0  0  0  0  0  0  0  0
    4.0614   -7.0367   27.0106 N   0  0  0  0  0  0  0  0  0  0  0  0
   -2.9133  -11.6279   18.7578 C   0  0  0  0  0  0  0  0  0  0  0  0
    4.5688  -10.1291   29.5758 C   0  0  0  0  0  0  0  0  0  0  0  0
    2.1008   -9.0410   29.1852 N   0  0  0  0  0  0  0  0  0  0  0  0
    3.4829  -10.5697   30.2091 N   0  0  0  0  0  0  0  0  0  0  0  0
   -0.3363   -6.1172   27.5628 C   0  0  0  0  0  0  0  0  0  0  0  0
    3.0331   -7.4400   27.6362 C   0  0  0  0  0  0  0  0  0  0  0  0
    5.4553   -8.5933   27.9644 C   0  0  0  0  0  0  0  0  0  0  0  0
   -2.3870  -12.8440   19.2512 C   0  0  0  0  0  0  0  0  0  0  0  0
    0.5331   -7.6964   16.2751 C   0  0  0  0  0  0  0  0  0  0  0  0
   -0.6740  -10.8737   18.0482 C   0  0  0  0  0  0  0  0  0  0  0  0
    5.6751  -10.5870   29.7637 O   0  0  0  0  0  0  0  0  0  0  0  0
    1.7612   -5.6483   26.7172 C   0  0  0  0  0  0  0  0  0  0  0  0
    0.2221   -9.8326   17.4055 C   0  0  0  0  0  0  0  0  0  0  0  0
    4.3850   -9.0730   28.6745 C   0  0  0  0  0  0  0  0  0  0  0  0
  1  7  4  0
  1 22  4  0
  2 17  4  0
  2 20  4  0
  2 28  4  0
  3  6  1  0
  3 19  1  0
  4 19  1  0
  4 26  1  0
  5 17  4  0
  5 18  4  0
  6 20  1  0
  6 26  1  0
  7 24  4  0
  8 15  4  0
  8 24  4  0
  9 14  4  0
  9 21  4  0
 10 12  4  0
 10 27  4  0
 11 12  4  0
 11 23  4  0
 13 23  4  0
 13 27  4  0
 14 20  4  0
 15 22  4  0
 16 18  4  0
 16 25  2  0
 16 28  4  0
 21 28  4  0
 24 27  1  0
M  END
$$$$

 Created by Python create_sdf_string function

 28 31  0  0  0  0  0  0  0  0999 V2000
   -1.0054  -13.0622   19.1198 C   0  0  0  0  0  0  0  0  0  0  0  0
    3.1478   -8.5360   28.5161 C   0  0  0  0  0  0  0  0  0  0  0  0
    0.5798   -7.1906   27.9330 C   0  0  0  0  0  0  0  0  0  0  0  0
    0.3978   -5.1561   26.6955 C   0  0  0  0  0  0  0  0  0  0  0  0
    2.3063  -10.0533   30.0125 C   0  0  0  0  0  0  0  0  0  0  0  0
    1.8591   -6.8254   27.4685 N   0  0  0  0  0  0  0  0  0  0  0  0
   -0.2167  -12.1055   18.5568 C   0  0  0  0  0  0  0  0  0  0  0  0
   -2.0661  -10.6994   18.1916 C   0  0  0  0  0  0  0  0  0  0  0  0
    5.2703   -7.5691   27.1123 C   0  0  0  0  0  0  0  0  0  0  0  0
    1.6204   -9.9887   17.2935 C   0  0  0  0  0  0  0  0  0  0  0  0
    1.8931   -7.9265   16.2047 C   0  0  0  0  0  0  0  0  0  0  0  0
    2.4396   -9.0801   16.7132 C   0  0  0  0  0  0  0  0  0  0  0  0
   -0.2575   -8.6234   16.8582 C   0  0  0  0  0  0  0  0  0  0  0  0
    4.0614   -7.0367   27.0106 N   0  0  0  0  0  0  0  0  0  0  0  0
   -2.9133  -11.6279   18.7578 C   0  0  0  0  0  0  0  0  0  0  0  0
    4.5688  -10.1291   29.5758 C   0  0  0  0  0  0  0  0  0  0  0  0
    2.1008   -9.0410   29.1852 N   0  0  0  0  0  0  0  0  0  0  0  0
    3.4829  -10.5697   30.2091 N   0  0  0  0  0  0  0  0  0  0  0  0
   -0.3363   -6.1172   27.5628 C   0  0  0  0  0  0  0  0  0  0  0  0
    3.0331   -7.4400   27.6362 C   0  0  0  0  0  0  0  0  0  0  0  0
    5.4553   -8.5933   27.9644 C   0  0  0  0  0  0  0  0  0  0  0  0
   -2.3870  -12.8440   19.2512 C   0  0  0  0  0  0  0  0  0  0  0  0
    0.5331   -7.6964   16.2751 C   0  0  0  0  0  0  0  0  0  0  0  0
   -0.6740  -10.8737   18.0482 C   0  0  0  0  0  0  0  0  0  0  0  0
    5.6751  -10.5870   29.7637 O   0  0  0  0  0  0  0  0  0  0  0  0
    1.7612   -5.6483   26.7172 C   0  0  0  0  0  0  0  0  0  0  0  0
    0.2221   -9.8326   17.4055 C   0  0  0  0  0  0  0  0  0  0  0  0
    4.3850   -9.0730   28.6745 C   0  0  0  0  0  0  0  0  0  0  0  0
  1  7  4  0
  1 22  4  0
  2 17  4  0
  2 20  4  0
  2 28  4  0
  3  6  1  0
  3 19  1  0
  4 19  1  0
  4 26  1  0
  5 17  4  0
  5 18  4  0
  6 20  1  0
  6 26  1  0
  7 24  4  0
  8 15  4  0
  8 24  4  0
  9 14  4  0
  9 21  4  0
 10 12  4  0
 10 27  4  0
 11 12  4  0
 11 23  4  0
 13 23  4  0
 13 27  4  0
 14 20  4  0
 15 22  4  0
 16 18  4  0
 16 25  2  0
 16 28  4  0
 21 28  4  0
 24 27  1  0
M  END
$$$$

 Created by Python create_sdf_string function

 28 31  0  0  0  0  0  0  0  0999 V2000
   -1.0054  -13.0622   19.1198 C   0  0  0  0  0  0  0  0  0  0  0  0
    3.1478   -8.5360   28.5161 C   0  0  0  0  0  0  0  0  0  0  0  0
    0.5798   -7.1906   27.9330 C   0  0  0  0  0  0  0  0  0  0  0  0
    0.3978   -5.1561   26.6955 C   0  0  0  0  0  0  0  0  0  0  0  0
    2.3063  -10.0533   30.0125 C   0  0  0  0  0  0  0  0  0  0  0  0
    1.8591   -6.8254   27.4685 N   0  0  0  0  0  0  0  0  0  0  0  0
   -0.2167  -12.1055   18.5568 C   0  0  0  0  0  0  0  0  0  0  0  0
   -2.0661  -10.6994   18.1916 C   0  0  0  0  0  0  0  0  0  0  0  0
    5.2703   -7.5691   27.1123 C   0  0  0  0  0  0  0  0  0  0  0  0
    1.6204   -9.9887   17.2935 C   0  0  0  0  0  0  0  0  0  0  0  0
    1.8931   -7.9265   16.2047 C   0  0  0  0  0  0  0  0  0  0  0  0
    2.4396   -9.0801   16.7132 C   0  0  0  0  0  0  0  0  0  0  0  0
   -0.2575   -8.6234   16.8582 C   0  0  0  0  0  0  0  0  0  0  0  0
    4.0614   -7.0367   27.0106 N   0  0  0  0  0  0  0  0  0  0  0  0
   -2.9133  -11.6279   18.7578 C   0  0  0  0  0  0  0  0  0  0  0  0
    4.5688  -10.1291   29.5758 C   0  0  0  0  0  0  0  0  0  0  0  0
    2.1008   -9.0410   29.1852 N   0  0  0  0  0  0  0  0  0  0  0  0
    3.4829  -10.5697   30.2091 N   0  0  0  0  0  0  0  0  0  0  0  0
   -0.3363   -6.1172   27.5628 C   0  0  0  0  0  0  0  0  0  0  0  0
    3.0331   -7.4400   27.6362 C   0  0  0  0  0  0  0  0  0  0  0  0
    5.4553   -8.5933   27.9644 C   0  0  0  0  0  0  0  0  0  0  0  0
   -2.3870  -12.8440   19.2512 C   0  0  0  0  0  0  0  0  0  0  0  0
    0.5331   -7.6964   16.2751 C   0  0  0  0  0  0  0  0  0  0  0  0
   -0.6740  -10.8737   18.0482 C   0  0  0  0  0  0  0  0  0  0  0  0
    5.6751  -10.5870   29.7637 O   0  0  0  0  0  0  0  0  0  0  0  0
    1.7612   -5.6483   26.7172 C   0  0  0  0  0  0  0  0  0  0  0  0
    0.2221   -9.8326   17.4055 C   0  0  0  0  0  0  0  0  0  0  0  0
    4.3850   -9.0730   28.6745 C   0  0  0  0  0  0  0  0  0  0  0  0
  1  7  4  0
  1 22  4  0
  2 17  4  0
  2 20  4  0
  2 28  4  0
  3  6  1  0
  3 19  1  0
  4 19  1  0
  4 26  1  0
  5 17  4  0
  5 18  4  0
  6 20  1  0
  6 26  1  0
  7 24  4  0
  8 15  4  0
  8 24  4  0
  9 14  4  0
  9 21  4  0
 10 12  4  0
 10 27  4  0
 11 12  4  0
 11 23  4  0
 13 23  4  0
 13 27  4  0
 14 20  4  0
 15 22  4  0
 16 18  4  0
 16 25  2  0
 16 28  4  0
 21 28  4  0
 24 27  1  0
M  END
$$$$

 Created by Python create_sdf_string function

 28 31  0  0  0  0  0  0  0  0999 V2000
   -1.0054  -13.0622   19.1198 C   0  0  0  0  0  0  0  0  0  0  0  0
    3.1478   -8.5360   28.5161 C   0  0  0  0  0  0  0  0  0  0  0  0
    0.5798   -7.1906   27.9330 C   0  0  0  0  0  0  0  0  0  0  0  0
    0.3978   -5.1561   26.6955 C   0  0  0  0  0  0  0  0  0  0  0  0
    2.3063  -10.0533   30.0125 C   0  0  0  0  0  0  0  0  0  0  0  0
    1.8591   -6.8254   27.4685 N   0  0  0  0  0  0  0  0  0  0  0  0
   -0.2167  -12.1055   18.5568 C   0  0  0  0  0  0  0  0  0  0  0  0
   -2.0661  -10.6994   18.1916 C   0  0  0  0  0  0  0  0  0  0  0  0
    5.2703   -7.5691   27.1123 C   0  0  0  0  0  0  0  0  0  0  0  0
    1.6204   -9.9887   17.2935 C   0  0  0  0  0  0  0  0  0  0  0  0
    1.8931   -7.9265   16.2047 C   0  0  0  0  0  0  0  0  0  0  0  0
    2.4396   -9.0801   16.7132 C   0  0  0  0  0  0  0  0  0  0  0  0
   -0.2575   -8.6234   16.8582 C   0  0  0  0  0  0  0  0  0  0  0  0
    4.0614   -7.0367   27.0106 N   0  0  0  0  0  0  0  0  0  0  0  0
   -2.9133  -11.6279   18.7578 C   0  0  0  0  0  0  0  0  0  0  0  0
    4.5688  -10.1291   29.5758 C   0  0  0  0  0  0  0  0  0  0  0  0
    2.1008   -9.0410   29.1852 N   0  0  0  0  0  0  0  0  0  0  0  0
    3.4829  -10.5697   30.2091 N   0  0  0  0  0  0  0  0  0  0  0  0
   -0.3363   -6.1172   27.5628 C   0  0  0  0  0  0  0  0  0  0  0  0
    3.0331   -7.4400   27.6362 C   0  0  0  0  0  0  0  0  0  0  0  0
    5.4553   -8.5933   27.9644 C   0  0  0  0  0  0  0  0  0  0  0  0
   -2.3870  -12.8440   19.2512 C   0  0  0  0  0  0  0  0  0  0  0  0
    0.5331   -7.6964   16.2751 C   0  0  0  0  0  0  0  0  0  0  0  0
   -0.6740  -10.8737   18.0482 C   0  0  0  0  0  0  0  0  0  0  0  0
    5.6751  -10.5870   29.7637 O   0  0  0  0  0  0  0  0  0  0  0  0
    1.7612   -5.6483   26.7172 C   0  0  0  0  0  0  0  0  0  0  0  0
    0.2221   -9.8326   17.4055 C   0  0  0  0  0  0  0  0  0  0  0  0
    4.3850   -9.0730   28.6745 C   0  0  0  0  0  0  0  0  0  0  0  0
  1  7  4  0
  1 22  4  0
  2 17  4  0
  2 20  4  0
  2 28  4  0
  3  6  1  0
  3 19  1  0
  4 19  1  0
  4 26  1  0
  5 17  4  0
  5 18  4  0
  6 20  1  0
  6 26  1  0
  7 24  4  0
  8 15  4  0
  8 24  4  0
  9 14  4  0
  9 21  4  0
 10 12  4  0
 10 27  4  0
 11 12  4  0
 11 23  4  0
 13 23  4  0
 13 27  4  0
 14 20  4  0
 15 22  4  0
 16 18  4  0
 16 25  2  0
 16 28  4  0
 21 28  4  0
 24 27  1  0
M  END
$$$$

 Created by Python create_sdf_string function

 28 31  0  0  0  0  0  0  0  0999 V2000
   -1.0054  -13.0622   19.1198 C   0  0  0  0  0  0  0  0  0  0  0  0
    3.1478   -8.5360   28.5161 C   0  0  0  0  0  0  0  0  0  0  0  0
    0.5798   -7.1906   27.9330 C   0  0  0  0  0  0  0  0  0  0  0  0
    0.3978   -5.1561   26.6955 C   0  0  0  0  0  0  0  0  0  0  0  0
    2.3063  -10.0533   30.0125 C   0  0  0  0  0  0  0  0  0  0  0  0
    1.8591   -6.8254   27.4685 N   0  0  0  0  0  0  0  0  0  0  0  0
   -0.2167  -12.1055   18.5568 C   0  0  0  0  0  0  0  0  0  0  0  0
   -2.0661  -10.6994   18.1916 C   0  0  0  0  0  0  0  0  0  0  0  0
    5.2703   -7.5691   27.1123 C   0  0  0  0  0  0  0  0  0  0  0  0
    1.6204   -9.9887   17.2935 C   0  0  0  0  0  0  0  0  0  0  0  0
    1.8931   -7.9265   16.2047 C   0  0  0  0  0  0  0  0  0  0  0  0
    2.4396   -9.0801   16.7132 C   0  0  0  0  0  0  0  0  0  0  0  0
   -0.2575   -8.6234   16.8582 C   0  0  0  0  0  0  0  0  0  0  0  0
    4.0614   -7.0367   27.0106 N   0  0  0  0  0  0  0  0  0  0  0  0
   -2.9133  -11.6279   18.7578 C   0  0  0  0  0  0  0  0  0  0  0  0
    4.5688  -10.1291   29.5758 C   0  0  0  0  0  0  0  0  0  0  0  0
    2.1008   -9.0410   29.1852 N   0  0  0  0  0  0  0  0  0  0  0  0
    3.4829  -10.5697   30.2091 N   0  0  0  0  0  0  0  0  0  0  0  0
   -0.3363   -6.1172   27.5628 C   0  0  0  0  0  0  0  0  0  0  0  0
    3.0331   -7.4400   27.6362 C   0  0  0  0  0  0  0  0  0  0  0  0
    5.4553   -8.5933   27.9644 C   0  0  0  0  0  0  0  0  0  0  0  0
   -2.3870  -12.8440   19.2512 C   0  0  0  0  0  0  0  0  0  0  0  0
    0.5331   -7.6964   16.2751 C   0  0  0  0  0  0  0  0  0  0  0  0
   -0.6740  -10.8737   18.0482 C   0  0  0  0  0  0  0  0  0  0  0  0
    5.6751  -10.5870   29.7637 O   0  0  0  0  0  0  0  0  0  0  0  0
    1.7612   -5.6483   26.7172 C   0  0  0  0  0  0  0  0  0  0  0  0
    0.2221   -9.8326   17.4055 C   0  0  0  0  0  0  0  0  0  0  0  0
    4.3850   -9.0730   28.6745 C   0  0  0  0  0  0  0  0  0  0  0  0
  1  7  4  0
  1 22  4  0
  2 17  4  0
  2 20  4  0
  2 28  4  0
  3  6  1  0
  3 19  1  0
  4 19  1  0
  4 26  1  0
  5 17  4  0
  5 18  4  0
  6 20  1  0
  6 26  1  0
  7 24  4  0
  8 15  4  0
  8 24  4  0
  9 14  4  0
  9 21  4  0
 10 12  4  0
 10 27  4  0
 11 12  4  0
 11 23  4  0
 13 23  4  0
 13 27  4  0
 14 20  4  0
 15 22  4  0
 16 18  4  0
 16 25  2  0
 16 28  4  0
 21 28  4  0
 24 27  1  0
M  END
$$$$

 Created by Python create_sdf_string function

 28 31  0  0  0  0  0  0  0  0999 V2000
   -1.0054  -13.0622   19.1198 C   0  0  0  0  0  0  0  0  0  0  0  0
    3.1478   -8.5360   28.5161 C   0  0  0  0  0  0  0  0  0  0  0  0
    0.5798   -7.1906   27.9330 C   0  0  0  0  0  0  0  0  0  0  0  0
    0.3978   -5.1561   26.6955 C   0  0  0  0  0  0  0  0  0  0  0  0
    2.3063  -10.0533   30.0125 C   0  0  0  0  0  0  0  0  0  0  0  0
    1.8591   -6.8254   27.4685 N   0  0  0  0  0  0  0  0  0  0  0  0
   -0.2167  -12.1055   18.5568 C   0  0  0  0  0  0  0  0  0  0  0  0
   -2.0661  -10.6994   18.1916 C   0  0  0  0  0  0  0  0  0  0  0  0
    5.2703   -7.5691   27.1123 C   0  0  0  0  0  0  0  0  0  0  0  0
    1.6204   -9.9887   17.2935 C   0  0  0  0  0  0  0  0  0  0  0  0
    1.8931   -7.9265   16.2047 C   0  0  0  0  0  0  0  0  0  0  0  0
    2.4396   -9.0801   16.7132 C   0  0  0  0  0  0  0  0  0  0  0  0
   -0.2575   -8.6234   16.8582 C   0  0  0  0  0  0  0  0  0  0  0  0
    4.0614   -7.0367   27.0106 N   0  0  0  0  0  0  0  0  0  0  0  0
   -2.9133  -11.6279   18.7578 C   0  0  0  0  0  0  0  0  0  0  0  0
    4.5688  -10.1291   29.5758 C   0  0  0  0  0  0  0  0  0  0  0  0
    2.1008   -9.0410   29.1852 N   0  0  0  0  0  0  0  0  0  0  0  0
    3.4829  -10.5697   30.2091 N   0  0  0  0  0  0  0  0  0  0  0  0
   -0.3363   -6.1172   27.5628 C   0  0  0  0  0  0  0  0  0  0  0  0
    3.0331   -7.4400   27.6362 C   0  0  0  0  0  0  0  0  0  0  0  0
    5.4553   -8.5933   27.9644 C   0  0  0  0  0  0  0  0  0  0  0  0
   -2.3870  -12.8440   19.2512 C   0  0  0  0  0  0  0  0  0  0  0  0
    0.5331   -7.6964   16.2751 C   0  0  0  0  0  0  0  0  0  0  0  0
   -0.6740  -10.8737   18.0482 C   0  0  0  0  0  0  0  0  0  0  0  0
    5.6751  -10.5870   29.7637 O   0  0  0  0  0  0  0  0  0  0  0  0
    1.7612   -5.6483   26.7172 C   0  0  0  0  0  0  0  0  0  0  0  0
    0.2221   -9.8326   17.4055 C   0  0  0  0  0  0  0  0  0  0  0  0
    4.3850   -9.0730   28.6745 C   0  0  0  0  0  0  0  0  0  0  0  0
  1  7  4  0
  1 22  4  0
  2 17  4  0
  2 20  4  0
  2 28  4  0
  3  6  1  0
  3 19  1  0
  4 19  1  0
  4 26  1  0
  5 17  4  0
  5 18  4  0
  6 20  1  0
  6 26  1  0
  7 24  4  0
  8 15  4  0
  8 24  4  0
  9 14  4  0
  9 21  4  0
 10 12  4  0
 10 27  4  0
 11 12  4  0
 11 23  4  0
 13 23  4  0
 13 27  4  0
 14 20  4  0
 15 22  4  0
 16 18  4  0
 16 25  2  0
 16 28  4  0
 21 28  4  0
 24 27  1  0
M  END
$$$$

 Created by Python create_sdf_string function

 28 31  0  0  0  0  0  0  0  0999 V2000
   -1.0054  -13.0622   19.1198 C   0  0  0  0  0  0  0  0  0  0  0  0
    3.1478   -8.5360   28.5161 C   0  0  0  0  0  0  0  0  0  0  0  0
    0.5798   -7.1906   27.9330 C   0  0  0  0  0  0  0  0  0  0  0  0
    0.3978   -5.1561   26.6955 C   0  0  0  0  0  0  0  0  0  0  0  0
    2.3063  -10.0533   30.0125 C   0  0  0  0  0  0  0  0  0  0  0  0
    1.8591   -6.8254   27.4685 N   0  0  0  0  0  0  0  0  0  0  0  0
   -0.2167  -12.1055   18.5568 C   0  0  0  0  0  0  0  0  0  0  0  0
   -2.0661  -10.6994   18.1916 C   0  0  0  0  0  0  0  0  0  0  0  0
    5.2703   -7.5691   27.1123 C   0  0  0  0  0  0  0  0  0  0  0  0
    1.6204   -9.9887   17.2935 C   0  0  0  0  0  0  0  0  0  0  0  0
    1.8931   -7.9265   16.2047 C   0  0  0  0  0  0  0  0  0  0  0  0
    2.4396   -9.0801   16.7132 C   0  0  0  0  0  0  0  0  0  0  0  0
   -0.2575   -8.6234   16.8582 C   0  0  0  0  0  0  0  0  0  0  0  0
    4.0614   -7.0367   27.0106 N   0  0  0  0  0  0  0  0  0  0  0  0
   -2.9133  -11.6279   18.7578 C   0  0  0  0  0  0  0  0  0  0  0  0
    4.5688  -10.1291   29.5758 C   0  0  0  0  0  0  0  0  0  0  0  0
    2.1008   -9.0410   29.1852 N   0  0  0  0  0  0  0  0  0  0  0  0
    3.4829  -10.5697   30.2091 N   0  0  0  0  0  0  0  0  0  0  0  0
   -0.3363   -6.1172   27.5628 C   0  0  0  0  0  0  0  0  0  0  0  0
    3.0331   -7.4400   27.6362 C   0  0  0  0  0  0  0  0  0  0  0  0
    5.4553   -8.5933   27.9644 C   0  0  0  0  0  0  0  0  0  0  0  0
   -2.3870  -12.8440   19.2512 C   0  0  0  0  0  0  0  0  0  0  0  0
    0.5331   -7.6964   16.2751 C   0  0  0  0  0  0  0  0  0  0  0  0
   -0.6740  -10.8737   18.0482 C   0  0  0  0  0  0  0  0  0  0  0  0
    5.6751  -10.5870   29.7637 O   0  0  0  0  0  0  0  0  0  0  0  0
    1.7612   -5.6483   26.7172 C   0  0  0  0  0  0  0  0  0  0  0  0
    0.2221   -9.8326   17.4055 C   0  0  0  0  0  0  0  0  0  0  0  0
    4.3850   -9.0730   28.6745 C   0  0  0  0  0  0  0  0  0  0  0  0
  1  7  4  0
  1 22  4  0
  2 17  4  0
  2 20  4  0
  2 28  4  0
  3  6  1  0
  3 19  1  0
  4 19  1  0
  4 26  1  0
  5 17  4  0
  5 18  4  0
  6 20  1  0
  6 26  1  0
  7 24  4  0
  8 15  4  0
  8 24  4  0
  9 14  4  0
  9 21  4  0
 10 12  4  0
 10 27  4  0
 11 12  4  0
 11 23  4  0
 13 23  4  0
 13 27  4  0
 14 20  4  0
 15 22  4  0
 16 18  4  0
 16 25  2  0
 16 28  4  0
 21 28  4  0
 24 27  1  0
M  END
$$$$

 Created by Python create_sdf_string function

 28 31  0  0  0  0  0  0  0  0999 V2000
   -1.0054  -13.0622   19.1198 C   0  0  0  0  0  0  0  0  0  0  0  0
    3.1478   -8.5360   28.5161 C   0  0  0  0  0  0  0  0  0  0  0  0
    0.5798   -7.1906   27.9330 C   0  0  0  0  0  0  0  0  0  0  0  0
    0.3978   -5.1561   26.6955 C   0  0  0  0  0  0  0  0  0  0  0  0
    2.3063  -10.0533   30.0125 C   0  0  0  0  0  0  0  0  0  0  0  0
    1.8591   -6.8254   27.4685 N   0  0  0  0  0  0  0  0  0  0  0  0
   -0.2167  -12.1055   18.5568 C   0  0  0  0  0  0  0  0  0  0  0  0
   -2.0661  -10.6994   18.1916 C   0  0  0  0  0  0  0  0  0  0  0  0
    5.2703   -7.5691   27.1123 C   0  0  0  0  0  0  0  0  0  0  0  0
    1.6204   -9.9887   17.2935 C   0  0  0  0  0  0  0  0  0  0  0  0
    1.8931   -7.9265   16.2047 C   0  0  0  0  0  0  0  0  0  0  0  0
    2.4396   -9.0801   16.7132 C   0  0  0  0  0  0  0  0  0  0  0  0
   -0.2575   -8.6234   16.8582 C   0  0  0  0  0  0  0  0  0  0  0  0
    4.0614   -7.0367   27.0106 N   0  0  0  0  0  0  0  0  0  0  0  0
   -2.9133  -11.6279   18.7578 C   0  0  0  0  0  0  0  0  0  0  0  0
    4.5688  -10.1291   29.5758 C   0  0  0  0  0  0  0  0  0  0  0  0
    2.1008   -9.0410   29.1852 N   0  0  0  0  0  0  0  0  0  0  0  0
    3.4829  -10.5697   30.2091 N   0  0  0  0  0  0  0  0  0  0  0  0
   -0.3363   -6.1172   27.5628 C   0  0  0  0  0  0  0  0  0  0  0  0
    3.0331   -7.4400   27.6362 C   0  0  0  0  0  0  0  0  0  0  0  0
    5.4553   -8.5933   27.9644 C   0  0  0  0  0  0  0  0  0  0  0  0
   -2.3870  -12.8440   19.2512 C   0  0  0  0  0  0  0  0  0  0  0  0
    0.5331   -7.6964   16.2751 C   0  0  0  0  0  0  0  0  0  0  0  0
   -0.6740  -10.8737   18.0482 C   0  0  0  0  0  0  0  0  0  0  0  0
    5.6751  -10.5870   29.7637 O   0  0  0  0  0  0  0  0  0  0  0  0
    1.7612   -5.6483   26.7172 C   0  0  0  0  0  0  0  0  0  0  0  0
    0.2221   -9.8326   17.4055 C   0  0  0  0  0  0  0  0  0  0  0  0
    4.3850   -9.0730   28.6745 C   0  0  0  0  0  0  0  0  0  0  0  0
  1  7  4  0
  1 22  4  0
  2 17  4  0
  2 20  4  0
  2 28  4  0
  3  6  1  0
  3 19  1  0
  4 19  1  0
  4 26  1  0
  5 17  4  0
  5 18  4  0
  6 20  1  0
  6 26  1  0
  7 24  4  0
  8 15  4  0
  8 24  4  0
  9 14  4  0
  9 21  4  0
 10 12  4  0
 10 27  4  0
 11 12  4  0
 11 23  4  0
 13 23  4  0
 13 27  4  0
 14 20  4  0
 15 22  4  0
 16 18  4  0
 16 25  2  0
 16 28  4  0
 21 28  4  0
 24 27  1  0
M  END
$$$$

 Created by Python create_sdf_string function

 28 31  0  0  0  0  0  0  0  0999 V2000
   -1.0054  -13.0622   19.1198 C   0  0  0  0  0  0  0  0  0  0  0  0
    3.1478   -8.5360   28.5161 C   0  0  0  0  0  0  0  0  0  0  0  0
    0.5798   -7.1906   27.9330 C   0  0  0  0  0  0  0  0  0  0  0  0
    0.3978   -5.1561   26.6955 C   0  0  0  0  0  0  0  0  0  0  0  0
    2.3063  -10.0533   30.0125 C   0  0  0  0  0  0  0  0  0  0  0  0
    1.8591   -6.8254   27.4685 N   0  0  0  0  0  0  0  0  0  0  0  0
   -0.2167  -12.1055   18.5568 C   0  0  0  0  0  0  0  0  0  0  0  0
   -2.0661  -10.6994   18.1916 C   0  0  0  0  0  0  0  0  0  0  0  0
    5.2703   -7.5691   27.1123 C   0  0  0  0  0  0  0  0  0  0  0  0
    1.6204   -9.9887   17.2935 C   0  0  0  0  0  0  0  0  0  0  0  0
    1.8931   -7.9265   16.2047 C   0  0  0  0  0  0  0  0  0  0  0  0
    2.4396   -9.0801   16.7132 C   0  0  0  0  0  0  0  0  0  0  0  0
   -0.2575   -8.6234   16.8582 C   0  0  0  0  0  0  0  0  0  0  0  0
    4.0614   -7.0367   27.0106 N   0  0  0  0  0  0  0  0  0  0  0  0
   -2.9133  -11.6279   18.7578 C   0  0  0  0  0  0  0  0  0  0  0  0
    4.5688  -10.1291   29.5758 C   0  0  0  0  0  0  0  0  0  0  0  0
    2.1008   -9.0410   29.1852 N   0  0  0  0  0  0  0  0  0  0  0  0
    3.4829  -10.5697   30.2091 N   0  0  0  0  0  0  0  0  0  0  0  0
   -0.3363   -6.1172   27.5628 C   0  0  0  0  0  0  0  0  0  0  0  0
    3.0331   -7.4400   27.6362 C   0  0  0  0  0  0  0  0  0  0  0  0
    5.4553   -8.5933   27.9644 C   0  0  0  0  0  0  0  0  0  0  0  0
   -2.3870  -12.8440   19.2512 C   0  0  0  0  0  0  0  0  0  0  0  0
    0.5331   -7.6964   16.2751 C   0  0  0  0  0  0  0  0  0  0  0  0
   -0.6740  -10.8737   18.0482 C   0  0  0  0  0  0  0  0  0  0  0  0
    5.6751  -10.5870   29.7637 O   0  0  0  0  0  0  0  0  0  0  0  0
    1.7612   -5.6483   26.7172 C   0  0  0  0  0  0  0  0  0  0  0  0
    0.2221   -9.8326   17.4055 C   0  0  0  0  0  0  0  0  0  0  0  0
    4.3850   -9.0730   28.6745 C   0  0  0  0  0  0  0  0  0  0  0  0
  1  7  4  0
  1 22  4  0
  2 17  4  0
  2 20  4  0
  2 28  4  0
  3  6  1  0
  3 19  1  0
  4 19  1  0
  4 26  1  0
  5 17  4  0
  5 18  4  0
  6 20  1  0
  6 26  1  0
  7 24  4  0
  8 15  4  0
  8 24  4  0
  9 14  4  0
  9 21  4  0
 10 12  4  0
 10 27  4  0
 11 12  4  0
 11 23  4  0
 13 23  4  0
 13 27  4  0
 14 20  4  0
 15 22  4  0
 16 18  4  0
 16 25  2  0
 16 28  4  0
 21 28  4  0
 24 27  1  0
M  END
$$$$

 Created by Python create_sdf_string function

 28 31  0  0  0  0  0  0  0  0999 V2000
   -1.0054  -13.0622   19.1198 C   0  0  0  0  0  0  0  0  0  0  0  0
    3.1478   -8.5360   28.5161 C   0  0  0  0  0  0  0  0  0  0  0  0
    0.5798   -7.1906   27.9330 C   0  0  0  0  0  0  0  0  0  0  0  0
    0.3978   -5.1561   26.6955 C   0  0  0  0  0  0  0  0  0  0  0  0
    2.3063  -10.0533   30.0125 C   0  0  0  0  0  0  0  0  0  0  0  0
    1.8591   -6.8254   27.4685 N   0  0  0  0  0  0  0  0  0  0  0  0
   -0.2167  -12.1055   18.5568 C   0  0  0  0  0  0  0  0  0  0  0  0
   -2.0661  -10.6994   18.1916 C   0  0  0  0  0  0  0  0  0  0  0  0
    5.2703   -7.5691   27.1123 C   0  0  0  0  0  0  0  0  0  0  0  0
    1.6204   -9.9887   17.2935 C   0  0  0  0  0  0  0  0  0  0  0  0
    1.8931   -7.9265   16.2047 C   0  0  0  0  0  0  0  0  0  0  0  0
    2.4396   -9.0801   16.7132 C   0  0  0  0  0  0  0  0  0  0  0  0
   -0.2575   -8.6234   16.8582 C   0  0  0  0  0  0  0  0  0  0  0  0
    4.0614   -7.0367   27.0106 N   0  0  0  0  0  0  0  0  0  0  0  0
   -2.9133  -11.6279   18.7578 C   0  0  0  0  0  0  0  0  0  0  0  0
    4.5688  -10.1291   29.5758 C   0  0  0  0  0  0  0  0  0  0  0  0
    2.1008   -9.0410   29.1852 N   0  0  0  0  0  0  0  0  0  0  0  0
    3.4829  -10.5697   30.2091 N   0  0  0  0  0  0  0  0  0  0  0  0
   -0.3363   -6.1172   27.5628 C   0  0  0  0  0  0  0  0  0  0  0  0
    3.0331   -7.4400   27.6362 C   0  0  0  0  0  0  0  0  0  0  0  0
    5.4553   -8.5933   27.9644 C   0  0  0  0  0  0  0  0  0  0  0  0
   -2.3870  -12.8440   19.2512 C   0  0  0  0  0  0  0  0  0  0  0  0
    0.5331   -7.6964   16.2751 C   0  0  0  0  0  0  0  0  0  0  0  0
   -0.6740  -10.8737   18.0482 C   0  0  0  0  0  0  0  0  0  0  0  0
    5.6751  -10.5870   29.7637 O   0  0  0  0  0  0  0  0  0  0  0  0
    1.7612   -5.6483   26.7172 C   0  0  0  0  0  0  0  0  0  0  0  0
    0.2221   -9.8326   17.4055 C   0  0  0  0  0  0  0  0  0  0  0  0
    4.3850   -9.0730   28.6745 C   0  0  0  0  0  0  0  0  0  0  0  0
  1  7  4  0
  1 22  4  0
  2 17  4  0
  2 20  4  0
  2 28  4  0
  3  6  1  0
  3 19  1  0
  4 19  1  0
  4 26  1  0
  5 17  4  0
  5 18  4  0
  6 20  1  0
  6 26  1  0
  7 24  4  0
  8 15  4  0
  8 24  4  0
  9 14  4  0
  9 21  4  0
 10 12  4  0
 10 27  4  0
 11 12  4  0
 11 23  4  0
 13 23  4  0
 13 27  4  0
 14 20  4  0
 15 22  4  0
 16 18  4  0
 16 25  2  0
 16 28  4  0
 21 28  4  0
 24 27  1  0
M  END
$$$$

 Created by Python create_sdf_string function

 28 31  0  0  0  0  0  0  0  0999 V2000
   -1.0054  -13.0622   19.1198 C   0  0  0  0  0  0  0  0  0  0  0  0
    3.1478   -8.5360   28.5161 C   0  0  0  0  0  0  0  0  0  0  0  0
    0.5798   -7.1906   27.9330 C   0  0  0  0  0  0  0  0  0  0  0  0
    0.3978   -5.1561   26.6955 C   0  0  0  0  0  0  0  0  0  0  0  0
    2.3063  -10.0533   30.0125 C   0  0  0  0  0  0  0  0  0  0  0  0
    1.8591   -6.8254   27.4685 N   0  0  0  0  0  0  0  0  0  0  0  0
   -0.2167  -12.1055   18.5568 C   0  0  0  0  0  0  0  0  0  0  0  0
   -2.0661  -10.6994   18.1916 C   0  0  0  0  0  0  0  0  0  0  0  0
    5.2703   -7.5691   27.1123 C   0  0  0  0  0  0  0  0  0  0  0  0
    1.6204   -9.9887   17.2935 C   0  0  0  0  0  0  0  0  0  0  0  0
    1.8931   -7.9265   16.2047 C   0  0  0  0  0  0  0  0  0  0  0  0
    2.4396   -9.0801   16.7132 C   0  0  0  0  0  0  0  0  0  0  0  0
   -0.2575   -8.6234   16.8582 C   0  0  0  0  0  0  0  0  0  0  0  0
    4.0614   -7.0367   27.0106 N   0  0  0  0  0  0  0  0  0  0  0  0
   -2.9133  -11.6279   18.7578 C   0  0  0  0  0  0  0  0  0  0  0  0
    4.5688  -10.1291   29.5758 C   0  0  0  0  0  0  0  0  0  0  0  0
    2.1008   -9.0410   29.1852 N   0  0  0  0  0  0  0  0  0  0  0  0
    3.4829  -10.5697   30.2091 N   0  0  0  0  0  0  0  0  0  0  0  0
   -0.3363   -6.1172   27.5628 C   0  0  0  0  0  0  0  0  0  0  0  0
    3.0331   -7.4400   27.6362 C   0  0  0  0  0  0  0  0  0  0  0  0
    5.4553   -8.5933   27.9644 C   0  0  0  0  0  0  0  0  0  0  0  0
   -2.3870  -12.8440   19.2512 C   0  0  0  0  0  0  0  0  0  0  0  0
    0.5331   -7.6964   16.2751 C   0  0  0  0  0  0  0  0  0  0  0  0
   -0.6740  -10.8737   18.0482 C   0  0  0  0  0  0  0  0  0  0  0  0
    5.6751  -10.5870   29.7637 O   0  0  0  0  0  0  0  0  0  0  0  0
    1.7612   -5.6483   26.7172 C   0  0  0  0  0  0  0  0  0  0  0  0
    0.2221   -9.8326   17.4055 C   0  0  0  0  0  0  0  0  0  0  0  0
    4.3850   -9.0730   28.6745 C   0  0  0  0  0  0  0  0  0  0  0  0
  1  7  4  0
  1 22  4  0
  2 17  4  0
  2 20  4  0
  2 28  4  0
  3  6  1  0
  3 19  1  0
  4 19  1  0
  4 26  1  0
  5 17  4  0
  5 18  4  0
  6 20  1  0
  6 26  1  0
  7 24  4  0
  8 15  4  0
  8 24  4  0
  9 14  4  0
  9 21  4  0
 10 12  4  0
 10 27  4  0
 11 12  4  0
 11 23  4  0
 13 23  4  0
 13 27  4  0
 14 20  4  0
 15 22  4  0
 16 18  4  0
 16 25  2  0
 16 28  4  0
 21 28  4  0
 24 27  1  0
M  END
$$$$

 Created by Python create_sdf_string function

 28 31  0  0  0  0  0  0  0  0999 V2000
   -1.0054  -13.0622   19.1198 C   0  0  0  0  0  0  0  0  0  0  0  0
    3.1478   -8.5360   28.5161 C   0  0  0  0  0  0  0  0  0  0  0  0
    0.5798   -7.1906   27.9330 C   0  0  0  0  0  0  0  0  0  0  0  0
    0.3978   -5.1561   26.6955 C   0  0  0  0  0  0  0  0  0  0  0  0
    2.3063  -10.0533   30.0125 C   0  0  0  0  0  0  0  0  0  0  0  0
    1.8591   -6.8254   27.4685 N   0  0  0  0  0  0  0  0  0  0  0  0
   -0.2167  -12.1055   18.5568 C   0  0  0  0  0  0  0  0  0  0  0  0
   -2.0661  -10.6994   18.1916 C   0  0  0  0  0  0  0  0  0  0  0  0
    5.2703   -7.5691   27.1123 C   0  0  0  0  0  0  0  0  0  0  0  0
    1.6204   -9.9887   17.2935 C   0  0  0  0  0  0  0  0  0  0  0  0
    1.8931   -7.9265   16.2047 C   0  0  0  0  0  0  0  0  0  0  0  0
    2.4396   -9.0801   16.7132 C   0  0  0  0  0  0  0  0  0  0  0  0
   -0.2575   -8.6234   16.8582 C   0  0  0  0  0  0  0  0  0  0  0  0
    4.0614   -7.0367   27.0106 N   0  0  0  0  0  0  0  0  0  0  0  0
   -2.9133  -11.6279   18.7578 C   0  0  0  0  0  0  0  0  0  0  0  0
    4.5688  -10.1291   29.5758 C   0  0  0  0  0  0  0  0  0  0  0  0
    2.1008   -9.0410   29.1852 N   0  0  0  0  0  0  0  0  0  0  0  0
    3.4829  -10.5697   30.2091 N   0  0  0  0  0  0  0  0  0  0  0  0
   -0.3363   -6.1172   27.5628 C   0  0  0  0  0  0  0  0  0  0  0  0
    3.0331   -7.4400   27.6362 C   0  0  0  0  0  0  0  0  0  0  0  0
    5.4553   -8.5933   27.9644 C   0  0  0  0  0  0  0  0  0  0  0  0
   -2.3870  -12.8440   19.2512 C   0  0  0  0  0  0  0  0  0  0  0  0
    0.5331   -7.6964   16.2751 C   0  0  0  0  0  0  0  0  0  0  0  0
   -0.6740  -10.8737   18.0482 C   0  0  0  0  0  0  0  0  0  0  0  0
    5.6751  -10.5870   29.7637 O   0  0  0  0  0  0  0  0  0  0  0  0
    1.7612   -5.6483   26.7172 C   0  0  0  0  0  0  0  0  0  0  0  0
    0.2221   -9.8326   17.4055 C   0  0  0  0  0  0  0  0  0  0  0  0
    4.3850   -9.0730   28.6745 C   0  0  0  0  0  0  0  0  0  0  0  0
  1  7  4  0
  1 22  4  0
  2 17  4  0
  2 20  4  0
  2 28  4  0
  3  6  1  0
  3 19  1  0
  4 19  1  0
  4 26  1  0
  5 17  4  0
  5 18  4  0
  6 20  1  0
  6 26  1  0
  7 24  4  0
  8 15  4  0
  8 24  4  0
  9 14  4  0
  9 21  4  0
 10 12  4  0
 10 27  4  0
 11 12  4  0
 11 23  4  0
 13 23  4  0
 13 27  4  0
 14 20  4  0
 15 22  4  0
 16 18  4  0
 16 25  2  0
 16 28  4  0
 21 28  4  0
 24 27  1  0
M  END
$$$$

 Created by Python create_sdf_string function

 28 31  0  0  0  0  0  0  0  0999 V2000
   -1.0054  -13.0622   19.1198 C   0  0  0  0  0  0  0  0  0  0  0  0
    3.1478   -8.5360   28.5161 C   0  0  0  0  0  0  0  0  0  0  0  0
    0.5798   -7.1906   27.9330 C   0  0  0  0  0  0  0  0  0  0  0  0
    0.3978   -5.1561   26.6955 C   0  0  0  0  0  0  0  0  0  0  0  0
    2.3063  -10.0533   30.0125 C   0  0  0  0  0  0  0  0  0  0  0  0
    1.8591   -6.8254   27.4685 N   0  0  0  0  0  0  0  0  0  0  0  0
   -0.2167  -12.1055   18.5568 C   0  0  0  0  0  0  0  0  0  0  0  0
   -2.0661  -10.6994   18.1916 C   0  0  0  0  0  0  0  0  0  0  0  0
    5.2703   -7.5691   27.1123 C   0  0  0  0  0  0  0  0  0  0  0  0
    1.6204   -9.9887   17.2935 C   0  0  0  0  0  0  0  0  0  0  0  0
    1.8931   -7.9265   16.2047 C   0  0  0  0  0  0  0  0  0  0  0  0
    2.4396   -9.0801   16.7132 C   0  0  0  0  0  0  0  0  0  0  0  0
   -0.2575   -8.6234   16.8582 C   0  0  0  0  0  0  0  0  0  0  0  0
    4.0614   -7.0367   27.0106 N   0  0  0  0  0  0  0  0  0  0  0  0
   -2.9133  -11.6279   18.7578 C   0  0  0  0  0  0  0  0  0  0  0  0
    4.5688  -10.1291   29.5758 C   0  0  0  0  0  0  0  0  0  0  0  0
    2.1008   -9.0410   29.1852 N   0  0  0  0  0  0  0  0  0  0  0  0
    3.4829  -10.5697   30.2091 N   0  0  0  0  0  0  0  0  0  0  0  0
   -0.3363   -6.1172   27.5628 C   0  0  0  0  0  0  0  0  0  0  0  0
    3.0331   -7.4400   27.6362 C   0  0  0  0  0  0  0  0  0  0  0  0
    5.4553   -8.5933   27.9644 C   0  0  0  0  0  0  0  0  0  0  0  0
   -2.3870  -12.8440   19.2512 C   0  0  0  0  0  0  0  0  0  0  0  0
    0.5331   -7.6964   16.2751 C   0  0  0  0  0  0  0  0  0  0  0  0
   -0.6740  -10.8737   18.0482 C   0  0  0  0  0  0  0  0  0  0  0  0
    5.6751  -10.5870   29.7637 O   0  0  0  0  0  0  0  0  0  0  0  0
    1.7612   -5.6483   26.7172 C   0  0  0  0  0  0  0  0  0  0  0  0
    0.2221   -9.8326   17.4055 C   0  0  0  0  0  0  0  0  0  0  0  0
    4.3850   -9.0730   28.6745 C   0  0  0  0  0  0  0  0  0  0  0  0
  1  7  4  0
  1 22  4  0
  2 17  4  0
  2 20  4  0
  2 28  4  0
  3  6  1  0
  3 19  1  0
  4 19  1  0
  4 26  1  0
  5 17  4  0
  5 18  4  0
  6 20  1  0
  6 26  1  0
  7 24  4  0
  8 15  4  0
  8 24  4  0
  9 14  4  0
  9 21  4  0
 10 12  4  0
 10 27  4  0
 11 12  4  0
 11 23  4  0
 13 23  4  0
 13 27  4  0
 14 20  4  0
 15 22  4  0
 16 18  4  0
 16 25  2  0
 16 28  4  0
 21 28  4  0
 24 27  1  0
M  END
$$$$

 Created by Python create_sdf_string function

 28 31  0  0  0  0  0  0  0  0999 V2000
   -1.0054  -13.0622   19.1198 C   0  0  0  0  0  0  0  0  0  0  0  0
    3.1478   -8.5360   28.5161 C   0  0  0  0  0  0  0  0  0  0  0  0
    0.5798   -7.1906   27.9330 C   0  0  0  0  0  0  0  0  0  0  0  0
    0.3978   -5.1561   26.6955 C   0  0  0  0  0  0  0  0  0  0  0  0
    2.3063  -10.0533   30.0125 C   0  0  0  0  0  0  0  0  0  0  0  0
    1.8591   -6.8254   27.4685 N   0  0  0  0  0  0  0  0  0  0  0  0
   -0.2167  -12.1055   18.5568 C   0  0  0  0  0  0  0  0  0  0  0  0
   -2.0661  -10.6994   18.1916 C   0  0  0  0  0  0  0  0  0  0  0  0
    5.2703   -7.5691   27.1123 C   0  0  0  0  0  0  0  0  0  0  0  0
    1.6204   -9.9887   17.2935 C   0  0  0  0  0  0  0  0  0  0  0  0
    1.8931   -7.9265   16.2047 C   0  0  0  0  0  0  0  0  0  0  0  0
    2.4396   -9.0801   16.7132 C   0  0  0  0  0  0  0  0  0  0  0  0
   -0.2575   -8.6234   16.8582 C   0  0  0  0  0  0  0  0  0  0  0  0
    4.0614   -7.0367   27.0106 N   0  0  0  0  0  0  0  0  0  0  0  0
   -2.9133  -11.6279   18.7578 C   0  0  0  0  0  0  0  0  0  0  0  0
    4.5688  -10.1291   29.5758 C   0  0  0  0  0  0  0  0  0  0  0  0
    2.1008   -9.0410   29.1852 N   0  0  0  0  0  0  0  0  0  0  0  0
    3.4829  -10.5697   30.2091 N   0  0  0  0  0  0  0  0  0  0  0  0
   -0.3363   -6.1172   27.5628 C   0  0  0  0  0  0  0  0  0  0  0  0
    3.0331   -7.4400   27.6362 C   0  0  0  0  0  0  0  0  0  0  0  0
    5.4553   -8.5933   27.9644 C   0  0  0  0  0  0  0  0  0  0  0  0
   -2.3870  -12.8440   19.2512 C   0  0  0  0  0  0  0  0  0  0  0  0
    0.5331   -7.6964   16.2751 C   0  0  0  0  0  0  0  0  0  0  0  0
   -0.6740  -10.8737   18.0482 C   0  0  0  0  0  0  0  0  0  0  0  0
    5.6751  -10.5870   29.7637 O   0  0  0  0  0  0  0  0  0  0  0  0
    1.7612   -5.6483   26.7172 C   0  0  0  0  0  0  0  0  0  0  0  0
    0.2221   -9.8326   17.4055 C   0  0  0  0  0  0  0  0  0  0  0  0
    4.3850   -9.0730   28.6745 C   0  0  0  0  0  0  0  0  0  0  0  0
  1  7  4  0
  1 22  4  0
  2 17  4  0
  2 20  4  0
  2 28  4  0
  3  6  1  0
  3 19  1  0
  4 19  1  0
  4 26  1  0
  5 17  4  0
  5 18  4  0
  6 20  1  0
  6 26  1  0
  7 24  4  0
  8 15  4  0
  8 24  4  0
  9 14  4  0
  9 21  4  0
 10 12  4  0
 10 27  4  0
 11 12  4  0
 11 23  4  0
 13 23  4  0
 13 27  4  0
 14 20  4  0
 15 22  4  0
 16 18  4  0
 16 25  2  0
 16 28  4  0
 21 28  4  0
 24 27  1  0
M  END
$$$$

 Created by Python create_sdf_string function

 28 31  0  0  0  0  0  0  0  0999 V2000
   -1.0054  -13.0622   19.1198 C   0  0  0  0  0  0  0  0  0  0  0  0
    3.1478   -8.5360   28.5161 C   0  0  0  0  0  0  0  0  0  0  0  0
    0.5798   -7.1906   27.9330 C   0  0  0  0  0  0  0  0  0  0  0  0
    0.3978   -5.1561   26.6955 C   0  0  0  0  0  0  0  0  0  0  0  0
    2.3063  -10.0533   30.0125 C   0  0  0  0  0  0  0  0  0  0  0  0
    1.8591   -6.8254   27.4685 N   0  0  0  0  0  0  0  0  0  0  0  0
   -0.2167  -12.1055   18.5568 C   0  0  0  0  0  0  0  0  0  0  0  0
   -2.0661  -10.6994   18.1916 C   0  0  0  0  0  0  0  0  0  0  0  0
    5.2703   -7.5691   27.1123 C   0  0  0  0  0  0  0  0  0  0  0  0
    1.6204   -9.9887   17.2935 C   0  0  0  0  0  0  0  0  0  0  0  0
    1.8931   -7.9265   16.2047 C   0  0  0  0  0  0  0  0  0  0  0  0
    2.4396   -9.0801   16.7132 C   0  0  0  0  0  0  0  0  0  0  0  0
   -0.2575   -8.6234   16.8582 C   0  0  0  0  0  0  0  0  0  0  0  0
    4.0614   -7.0367   27.0106 N   0  0  0  0  0  0  0  0  0  0  0  0
   -2.9133  -11.6279   18.7578 C   0  0  0  0  0  0  0  0  0  0  0  0
    4.5688  -10.1291   29.5758 C   0  0  0  0  0  0  0  0  0  0  0  0
    2.1008   -9.0410   29.1852 N   0  0  0  0  0  0  0  0  0  0  0  0
    3.4829  -10.5697   30.2091 N   0  0  0  0  0  0  0  0  0  0  0  0
   -0.3363   -6.1172   27.5628 C   0  0  0  0  0  0  0  0  0  0  0  0
    3.0331   -7.4400   27.6362 C   0  0  0  0  0  0  0  0  0  0  0  0
    5.4553   -8.5933   27.9644 C   0  0  0  0  0  0  0  0  0  0  0  0
   -2.3870  -12.8440   19.2512 C   0  0  0  0  0  0  0  0  0  0  0  0
    0.5331   -7.6964   16.2751 C   0  0  0  0  0  0  0  0  0  0  0  0
   -0.6740  -10.8737   18.0482 C   0  0  0  0  0  0  0  0  0  0  0  0
    5.6751  -10.5870   29.7637 O   0  0  0  0  0  0  0  0  0  0  0  0
    1.7612   -5.6483   26.7172 C   0  0  0  0  0  0  0  0  0  0  0  0
    0.2221   -9.8326   17.4055 C   0  0  0  0  0  0  0  0  0  0  0  0
    4.3850   -9.0730   28.6745 C   0  0  0  0  0  0  0  0  0  0  0  0
  1  7  4  0
  1 22  4  0
  2 17  4  0
  2 20  4  0
  2 28  4  0
  3  6  1  0
  3 19  1  0
  4 19  1  0
  4 26  1  0
  5 17  4  0
  5 18  4  0
  6 20  1  0
  6 26  1  0
  7 24  4  0
  8 15  4  0
  8 24  4  0
  9 14  4  0
  9 21  4  0
 10 12  4  0
 10 27  4  0
 11 12  4  0
 11 23  4  0
 13 23  4  0
 13 27  4  0
 14 20  4  0
 15 22  4  0
 16 18  4  0
 16 25  2  0
 16 28  4  0
 21 28  4  0
 24 27  1  0
M  END
$$$$

 Created by Python create_sdf_string function

 28 31  0  0  0  0  0  0  0  0999 V2000
   -1.0054  -13.0622   19.1198 C   0  0  0  0  0  0  0  0  0  0  0  0
    3.1478   -8.5360   28.5161 C   0  0  0  0  0  0  0  0  0  0  0  0
    0.5798   -7.1906   27.9330 C   0  0  0  0  0  0  0  0  0  0  0  0
    0.3978   -5.1561   26.6955 C   0  0  0  0  0  0  0  0  0  0  0  0
    2.3063  -10.0533   30.0125 C   0  0  0  0  0  0  0  0  0  0  0  0
    1.8591   -6.8254   27.4685 N   0  0  0  0  0  0  0  0  0  0  0  0
   -0.2167  -12.1055   18.5568 C   0  0  0  0  0  0  0  0  0  0  0  0
   -2.0661  -10.6994   18.1916 C   0  0  0  0  0  0  0  0  0  0  0  0
    5.2703   -7.5691   27.1123 C   0  0  0  0  0  0  0  0  0  0  0  0
    1.6204   -9.9887   17.2935 C   0  0  0  0  0  0  0  0  0  0  0  0
    1.8931   -7.9265   16.2047 C   0  0  0  0  0  0  0  0  0  0  0  0
    2.4396   -9.0801   16.7132 C   0  0  0  0  0  0  0  0  0  0  0  0
   -0.2575   -8.6234   16.8582 C   0  0  0  0  0  0  0  0  0  0  0  0
    4.0614   -7.0367   27.0106 N   0  0  0  0  0  0  0  0  0  0  0  0
   -2.9133  -11.6279   18.7578 C   0  0  0  0  0  0  0  0  0  0  0  0
    4.5688  -10.1291   29.5758 C   0  0  0  0  0  0  0  0  0  0  0  0
    2.1008   -9.0410   29.1852 N   0  0  0  0  0  0  0  0  0  0  0  0
    3.4829  -10.5697   30.2091 N   0  0  0  0  0  0  0  0  0  0  0  0
   -0.3363   -6.1172   27.5628 C   0  0  0  0  0  0  0  0  0  0  0  0
    3.0331   -7.4400   27.6362 C   0  0  0  0  0  0  0  0  0  0  0  0
    5.4553   -8.5933   27.9644 C   0  0  0  0  0  0  0  0  0  0  0  0
   -2.3870  -12.8440   19.2512 C   0  0  0  0  0  0  0  0  0  0  0  0
    0.5331   -7.6964   16.2751 C   0  0  0  0  0  0  0  0  0  0  0  0
   -0.6740  -10.8737   18.0482 C   0  0  0  0  0  0  0  0  0  0  0  0
    5.6751  -10.5870   29.7637 O   0  0  0  0  0  0  0  0  0  0  0  0
    1.7612   -5.6483   26.7172 C   0  0  0  0  0  0  0  0  0  0  0  0
    0.2221   -9.8326   17.4055 C   0  0  0  0  0  0  0  0  0  0  0  0
    4.3850   -9.0730   28.6745 C   0  0  0  0  0  0  0  0  0  0  0  0
  1  7  4  0
  1 22  4  0
  2 17  4  0
  2 20  4  0
  2 28  4  0
  3  6  1  0
  3 19  1  0
  4 19  1  0
  4 26  1  0
  5 17  4  0
  5 18  4  0
  6 20  1  0
  6 26  1  0
  7 24  4  0
  8 15  4  0
  8 24  4  0
  9 14  4  0
  9 21  4  0
 10 12  4  0
 10 27  4  0
 11 12  4  0
 11 23  4  0
 13 23  4  0
 13 27  4  0
 14 20  4  0
 15 22  4  0
 16 18  4  0
 16 25  2  0
 16 28  4  0
 21 28  4  0
 24 27  1  0
M  END
$$$$

 Created by Python create_sdf_string function

 28 31  0  0  0  0  0  0  0  0999 V2000
   -1.0054  -13.0622   19.1198 C   0  0  0  0  0  0  0  0  0  0  0  0
    3.1478   -8.5360   28.5161 C   0  0  0  0  0  0  0  0  0  0  0  0
    0.5798   -7.1906   27.9330 C   0  0  0  0  0  0  0  0  0  0  0  0
    0.3978   -5.1561   26.6955 C   0  0  0  0  0  0  0  0  0  0  0  0
    2.3063  -10.0533   30.0125 C   0  0  0  0  0  0  0  0  0  0  0  0
    1.8591   -6.8254   27.4685 N   0  0  0  0  0  0  0  0  0  0  0  0
   -0.2167  -12.1055   18.5568 C   0  0  0  0  0  0  0  0  0  0  0  0
   -2.0661  -10.6994   18.1916 C   0  0  0  0  0  0  0  0  0  0  0  0
    5.2703   -7.5691   27.1123 C   0  0  0  0  0  0  0  0  0  0  0  0
    1.6204   -9.9887   17.2935 C   0  0  0  0  0  0  0  0  0  0  0  0
    1.8931   -7.9265   16.2047 C   0  0  0  0  0  0  0  0  0  0  0  0
    2.4396   -9.0801   16.7132 C   0  0  0  0  0  0  0  0  0  0  0  0
   -0.2575   -8.6234   16.8582 C   0  0  0  0  0  0  0  0  0  0  0  0
    4.0614   -7.0367   27.0106 N   0  0  0  0  0  0  0  0  0  0  0  0
   -2.9133  -11.6279   18.7578 C   0  0  0  0  0  0  0  0  0  0  0  0
    4.5688  -10.1291   29.5758 C   0  0  0  0  0  0  0  0  0  0  0  0
    2.1008   -9.0410   29.1852 N   0  0  0  0  0  0  0  0  0  0  0  0
    3.4829  -10.5697   30.2091 N   0  0  0  0  0  0  0  0  0  0  0  0
   -0.3363   -6.1172   27.5628 C   0  0  0  0  0  0  0  0  0  0  0  0
    3.0331   -7.4400   27.6362 C   0  0  0  0  0  0  0  0  0  0  0  0
    5.4553   -8.5933   27.9644 C   0  0  0  0  0  0  0  0  0  0  0  0
   -2.3870  -12.8440   19.2512 C   0  0  0  0  0  0  0  0  0  0  0  0
    0.5331   -7.6964   16.2751 C   0  0  0  0  0  0  0  0  0  0  0  0
   -0.6740  -10.8737   18.0482 C   0  0  0  0  0  0  0  0  0  0  0  0
    5.6751  -10.5870   29.7637 O   0  0  0  0  0  0  0  0  0  0  0  0
    1.7612   -5.6483   26.7172 C   0  0  0  0  0  0  0  0  0  0  0  0
    0.2221   -9.8326   17.4055 C   0  0  0  0  0  0  0  0  0  0  0  0
    4.3850   -9.0730   28.6745 C   0  0  0  0  0  0  0  0  0  0  0  0
  1  7  4  0
  1 22  4  0
  2 17  4  0
  2 20  4  0
  2 28  4  0
  3  6  1  0
  3 19  1  0
  4 19  1  0
  4 26  1  0
  5 17  4  0
  5 18  4  0
  6 20  1  0
  6 26  1  0
  7 24  4  0
  8 15  4  0
  8 24  4  0
  9 14  4  0
  9 21  4  0
 10 12  4  0
 10 27  4  0
 11 12  4  0
 11 23  4  0
 13 23  4  0
 13 27  4  0
 14 20  4  0
 15 22  4  0
 16 18  4  0
 16 25  2  0
 16 28  4  0
 21 28  4  0
 24 27  1  0
M  END
$$$$

 Created by Python create_sdf_string function

 28 31  0  0  0  0  0  0  0  0999 V2000
   -1.0054  -13.0622   19.1198 C   0  0  0  0  0  0  0  0  0  0  0  0
    3.1478   -8.5360   28.5161 C   0  0  0  0  0  0  0  0  0  0  0  0
    0.5798   -7.1906   27.9330 C   0  0  0  0  0  0  0  0  0  0  0  0
    0.3978   -5.1561   26.6955 C   0  0  0  0  0  0  0  0  0  0  0  0
    2.3063  -10.0533   30.0125 C   0  0  0  0  0  0  0  0  0  0  0  0
    1.8591   -6.8254   27.4685 N   0  0  0  0  0  0  0  0  0  0  0  0
   -0.2167  -12.1055   18.5568 C   0  0  0  0  0  0  0  0  0  0  0  0
   -2.0661  -10.6994   18.1916 C   0  0  0  0  0  0  0  0  0  0  0  0
    5.2703   -7.5691   27.1123 C   0  0  0  0  0  0  0  0  0  0  0  0
    1.6204   -9.9887   17.2935 C   0  0  0  0  0  0  0  0  0  0  0  0
    1.8931   -7.9265   16.2047 C   0  0  0  0  0  0  0  0  0  0  0  0
    2.4396   -9.0801   16.7132 C   0  0  0  0  0  0  0  0  0  0  0  0
   -0.2575   -8.6234   16.8582 C   0  0  0  0  0  0  0  0  0  0  0  0
    4.0614   -7.0367   27.0106 N   0  0  0  0  0  0  0  0  0  0  0  0
   -2.9133  -11.6279   18.7578 C   0  0  0  0  0  0  0  0  0  0  0  0
    4.5688  -10.1291   29.5758 C   0  0  0  0  0  0  0  0  0  0  0  0
    2.1008   -9.0410   29.1852 N   0  0  0  0  0  0  0  0  0  0  0  0
    3.4829  -10.5697   30.2091 N   0  0  0  0  0  0  0  0  0  0  0  0
   -0.3363   -6.1172   27.5628 C   0  0  0  0  0  0  0  0  0  0  0  0
    3.0331   -7.4400   27.6362 C   0  0  0  0  0  0  0  0  0  0  0  0
    5.4553   -8.5933   27.9644 C   0  0  0  0  0  0  0  0  0  0  0  0
   -2.3870  -12.8440   19.2512 C   0  0  0  0  0  0  0  0  0  0  0  0
    0.5331   -7.6964   16.2751 C   0  0  0  0  0  0  0  0  0  0  0  0
   -0.6740  -10.8737   18.0482 C   0  0  0  0  0  0  0  0  0  0  0  0
    5.6751  -10.5870   29.7637 O   0  0  0  0  0  0  0  0  0  0  0  0
    1.7612   -5.6483   26.7172 C   0  0  0  0  0  0  0  0  0  0  0  0
    0.2221   -9.8326   17.4055 C   0  0  0  0  0  0  0  0  0  0  0  0
    4.3850   -9.0730   28.6745 C   0  0  0  0  0  0  0  0  0  0  0  0
  1  7  4  0
  1 22  4  0
  2 17  4  0
  2 20  4  0
  2 28  4  0
  3  6  1  0
  3 19  1  0
  4 19  1  0
  4 26  1  0
  5 17  4  0
  5 18  4  0
  6 20  1  0
  6 26  1  0
  7 24  4  0
  8 15  4  0
  8 24  4  0
  9 14  4  0
  9 21  4  0
 10 12  4  0
 10 27  4  0
 11 12  4  0
 11 23  4  0
 13 23  4  0
 13 27  4  0
 14 20  4  0
 15 22  4  0
 16 18  4  0
 16 25  2  0
 16 28  4  0
 21 28  4  0
 24 27  1  0
M  END
$$$$

 Created by Python create_sdf_string function

 28 31  0  0  0  0  0  0  0  0999 V2000
   -1.0054  -13.0622   19.1198 C   0  0  0  0  0  0  0  0  0  0  0  0
    3.1478   -8.5360   28.5161 C   0  0  0  0  0  0  0  0  0  0  0  0
    0.5798   -7.1906   27.9330 C   0  0  0  0  0  0  0  0  0  0  0  0
    0.3978   -5.1561   26.6955 C   0  0  0  0  0  0  0  0  0  0  0  0
    2.3063  -10.0533   30.0125 C   0  0  0  0  0  0  0  0  0  0  0  0
    1.8591   -6.8254   27.4685 N   0  0  0  0  0  0  0  0  0  0  0  0
   -0.2167  -12.1055   18.5568 C   0  0  0  0  0  0  0  0  0  0  0  0
   -2.0661  -10.6994   18.1916 C   0  0  0  0  0  0  0  0  0  0  0  0
    5.2703   -7.5691   27.1123 C   0  0  0  0  0  0  0  0  0  0  0  0
    1.6204   -9.9887   17.2935 C   0  0  0  0  0  0  0  0  0  0  0  0
    1.8931   -7.9265   16.2047 C   0  0  0  0  0  0  0  0  0  0  0  0
    2.4396   -9.0801   16.7132 C   0  0  0  0  0  0  0  0  0  0  0  0
   -0.2575   -8.6234   16.8582 C   0  0  0  0  0  0  0  0  0  0  0  0
    4.0614   -7.0367   27.0106 N   0  0  0  0  0  0  0  0  0  0  0  0
   -2.9133  -11.6279   18.7578 C   0  0  0  0  0  0  0  0  0  0  0  0
    4.5688  -10.1291   29.5758 C   0  0  0  0  0  0  0  0  0  0  0  0
    2.1008   -9.0410   29.1852 N   0  0  0  0  0  0  0  0  0  0  0  0
    3.4829  -10.5697   30.2091 N   0  0  0  0  0  0  0  0  0  0  0  0
   -0.3363   -6.1172   27.5628 C   0  0  0  0  0  0  0  0  0  0  0  0
    3.0331   -7.4400   27.6362 C   0  0  0  0  0  0  0  0  0  0  0  0
    5.4553   -8.5933   27.9644 C   0  0  0  0  0  0  0  0  0  0  0  0
   -2.3870  -12.8440   19.2512 C   0  0  0  0  0  0  0  0  0  0  0  0
    0.5331   -7.6964   16.2751 C   0  0  0  0  0  0  0  0  0  0  0  0
   -0.6740  -10.8737   18.0482 C   0  0  0  0  0  0  0  0  0  0  0  0
    5.6751  -10.5870   29.7637 O   0  0  0  0  0  0  0  0  0  0  0  0
    1.7612   -5.6483   26.7172 C   0  0  0  0  0  0  0  0  0  0  0  0
    0.2221   -9.8326   17.4055 C   0  0  0  0  0  0  0  0  0  0  0  0
    4.3850   -9.0730   28.6745 C   0  0  0  0  0  0  0  0  0  0  0  0
  1  7  4  0
  1 22  4  0
  2 17  4  0
  2 20  4  0
  2 28  4  0
  3  6  1  0
  3 19  1  0
  4 19  1  0
  4 26  1  0
  5 17  4  0
  5 18  4  0
  6 20  1  0
  6 26  1  0
  7 24  4  0
  8 15  4  0
  8 24  4  0
  9 14  4  0
  9 21  4  0
 10 12  4  0
 10 27  4  0
 11 12  4  0
 11 23  4  0
 13 23  4  0
 13 27  4  0
 14 20  4  0
 15 22  4  0
 16 18  4  0
 16 25  2  0
 16 28  4  0
 21 28  4  0
 24 27  1  0
M  END
$$$$

 Created by Python create_sdf_string function

 28 31  0  0  0  0  0  0  0  0999 V2000
   -1.0054  -13.0622   19.1198 C   0  0  0  0  0  0  0  0  0  0  0  0
    3.1478   -8.5360   28.5161 C   0  0  0  0  0  0  0  0  0  0  0  0
    0.5798   -7.1906   27.9330 C   0  0  0  0  0  0  0  0  0  0  0  0
    0.3978   -5.1561   26.6955 C   0  0  0  0  0  0  0  0  0  0  0  0
    2.3063  -10.0533   30.0125 C   0  0  0  0  0  0  0  0  0  0  0  0
    1.8591   -6.8254   27.4685 N   0  0  0  0  0  0  0  0  0  0  0  0
   -0.2167  -12.1055   18.5568 C   0  0  0  0  0  0  0  0  0  0  0  0
   -2.0661  -10.6994   18.1916 C   0  0  0  0  0  0  0  0  0  0  0  0
    5.2703   -7.5691   27.1123 C   0  0  0  0  0  0  0  0  0  0  0  0
    1.6204   -9.9887   17.2935 C   0  0  0  0  0  0  0  0  0  0  0  0
    1.8931   -7.9265   16.2047 C   0  0  0  0  0  0  0  0  0  0  0  0
    2.4396   -9.0801   16.7132 C   0  0  0  0  0  0  0  0  0  0  0  0
   -0.2575   -8.6234   16.8582 C   0  0  0  0  0  0  0  0  0  0  0  0
    4.0614   -7.0367   27.0106 N   0  0  0  0  0  0  0  0  0  0  0  0
   -2.9133  -11.6279   18.7578 C   0  0  0  0  0  0  0  0  0  0  0  0
    4.5688  -10.1291   29.5758 C   0  0  0  0  0  0  0  0  0  0  0  0
    2.1008   -9.0410   29.1852 N   0  0  0  0  0  0  0  0  0  0  0  0
    3.4829  -10.5697   30.2091 N   0  0  0  0  0  0  0  0  0  0  0  0
   -0.3363   -6.1172   27.5628 C   0  0  0  0  0  0  0  0  0  0  0  0
    3.0331   -7.4400   27.6362 C   0  0  0  0  0  0  0  0  0  0  0  0
    5.4553   -8.5933   27.9644 C   0  0  0  0  0  0  0  0  0  0  0  0
   -2.3870  -12.8440   19.2512 C   0  0  0  0  0  0  0  0  0  0  0  0
    0.5331   -7.6964   16.2751 C   0  0  0  0  0  0  0  0  0  0  0  0
   -0.6740  -10.8737   18.0482 C   0  0  0  0  0  0  0  0  0  0  0  0
    5.6751  -10.5870   29.7637 O   0  0  0  0  0  0  0  0  0  0  0  0
    1.7612   -5.6483   26.7172 C   0  0  0  0  0  0  0  0  0  0  0  0
    0.2221   -9.8326   17.4055 C   0  0  0  0  0  0  0  0  0  0  0  0
    4.3850   -9.0730   28.6745 C   0  0  0  0  0  0  0  0  0  0  0  0
  1  7  4  0
  1 22  4  0
  2 17  4  0
  2 20  4  0
  2 28  4  0
  3  6  1  0
  3 19  1  0
  4 19  1  0
  4 26  1  0
  5 17  4  0
  5 18  4  0
  6 20  1  0
  6 26  1  0
  7 24  4  0
  8 15  4  0
  8 24  4  0
  9 14  4  0
  9 21  4  0
 10 12  4  0
 10 27  4  0
 11 12  4  0
 11 23  4  0
 13 23  4  0
 13 27  4  0
 14 20  4  0
 15 22  4  0
 16 18  4  0
 16 25  2  0
 16 28  4  0
 21 28  4  0
 24 27  1  0
M  END
$$$$

 Created by Python create_sdf_string function

 28 31  0  0  0  0  0  0  0  0999 V2000
   -1.0054  -13.0622   19.1198 C   0  0  0  0  0  0  0  0  0  0  0  0
    3.1478   -8.5360   28.5161 C   0  0  0  0  0  0  0  0  0  0  0  0
    0.5798   -7.1906   27.9330 C   0  0  0  0  0  0  0  0  0  0  0  0
    0.3978   -5.1561   26.6955 C   0  0  0  0  0  0  0  0  0  0  0  0
    2.3063  -10.0533   30.0125 C   0  0  0  0  0  0  0  0  0  0  0  0
    1.8591   -6.8254   27.4685 N   0  0  0  0  0  0  0  0  0  0  0  0
   -0.2167  -12.1055   18.5568 C   0  0  0  0  0  0  0  0  0  0  0  0
   -2.0661  -10.6994   18.1916 C   0  0  0  0  0  0  0  0  0  0  0  0
    5.2703   -7.5691   27.1123 C   0  0  0  0  0  0  0  0  0  0  0  0
    1.6204   -9.9887   17.2935 C   0  0  0  0  0  0  0  0  0  0  0  0
    1.8931   -7.9265   16.2047 C   0  0  0  0  0  0  0  0  0  0  0  0
    2.4396   -9.0801   16.7132 C   0  0  0  0  0  0  0  0  0  0  0  0
   -0.2575   -8.6234   16.8582 C   0  0  0  0  0  0  0  0  0  0  0  0
    4.0614   -7.0367   27.0106 N   0  0  0  0  0  0  0  0  0  0  0  0
   -2.9133  -11.6279   18.7578 C   0  0  0  0  0  0  0  0  0  0  0  0
    4.5688  -10.1291   29.5758 C   0  0  0  0  0  0  0  0  0  0  0  0
    2.1008   -9.0410   29.1852 N   0  0  0  0  0  0  0  0  0  0  0  0
    3.4829  -10.5697   30.2091 N   0  0  0  0  0  0  0  0  0  0  0  0
   -0.3363   -6.1172   27.5628 C   0  0  0  0  0  0  0  0  0  0  0  0
    3.0331   -7.4400   27.6362 C   0  0  0  0  0  0  0  0  0  0  0  0
    5.4553   -8.5933   27.9644 C   0  0  0  0  0  0  0  0  0  0  0  0
   -2.3870  -12.8440   19.2512 C   0  0  0  0  0  0  0  0  0  0  0  0
    0.5331   -7.6964   16.2751 C   0  0  0  0  0  0  0  0  0  0  0  0
   -0.6740  -10.8737   18.0482 C   0  0  0  0  0  0  0  0  0  0  0  0
    5.6751  -10.5870   29.7637 O   0  0  0  0  0  0  0  0  0  0  0  0
    1.7612   -5.6483   26.7172 C   0  0  0  0  0  0  0  0  0  0  0  0
    0.2221   -9.8326   17.4055 C   0  0  0  0  0  0  0  0  0  0  0  0
    4.3850   -9.0730   28.6745 C   0  0  0  0  0  0  0  0  0  0  0  0
  1  7  4  0
  1 22  4  0
  2 17  4  0
  2 20  4  0
  2 28  4  0
  3  6  1  0
  3 19  1  0
  4 19  1  0
  4 26  1  0
  5 17  4  0
  5 18  4  0
  6 20  1  0
  6 26  1  0
  7 24  4  0
  8 15  4  0
  8 24  4  0
  9 14  4  0
  9 21  4  0
 10 12  4  0
 10 27  4  0
 11 12  4  0
 11 23  4  0
 13 23  4  0
 13 27  4  0
 14 20  4  0
 15 22  4  0
 16 18  4  0
 16 25  2  0
 16 28  4  0
 21 28  4  0
 24 27  1  0
M  END
$$$$

 Created by Python create_sdf_string function

 28 31  0  0  0  0  0  0  0  0999 V2000
   -1.0054  -13.0622   19.1198 C   0  0  0  0  0  0  0  0  0  0  0  0
    3.1478   -8.5360   28.5161 C   0  0  0  0  0  0  0  0  0  0  0  0
    0.5798   -7.1906   27.9330 C   0  0  0  0  0  0  0  0  0  0  0  0
    0.3978   -5.1561   26.6955 C   0  0  0  0  0  0  0  0  0  0  0  0
    2.3063  -10.0533   30.0125 C   0  0  0  0  0  0  0  0  0  0  0  0
    1.8591   -6.8254   27.4685 N   0  0  0  0  0  0  0  0  0  0  0  0
   -0.2167  -12.1055   18.5568 C   0  0  0  0  0  0  0  0  0  0  0  0
   -2.0661  -10.6994   18.1916 C   0  0  0  0  0  0  0  0  0  0  0  0
    5.2703   -7.5691   27.1123 C   0  0  0  0  0  0  0  0  0  0  0  0
    1.6204   -9.9887   17.2935 C   0  0  0  0  0  0  0  0  0  0  0  0
    1.8931   -7.9265   16.2047 C   0  0  0  0  0  0  0  0  0  0  0  0
    2.4396   -9.0801   16.7132 C   0  0  0  0  0  0  0  0  0  0  0  0
   -0.2575   -8.6234   16.8582 C   0  0  0  0  0  0  0  0  0  0  0  0
    4.0614   -7.0367   27.0106 N   0  0  0  0  0  0  0  0  0  0  0  0
   -2.9133  -11.6279   18.7578 C   0  0  0  0  0  0  0  0  0  0  0  0
    4.5688  -10.1291   29.5758 C   0  0  0  0  0  0  0  0  0  0  0  0
    2.1008   -9.0410   29.1852 N   0  0  0  0  0  0  0  0  0  0  0  0
    3.4829  -10.5697   30.2091 N   0  0  0  0  0  0  0  0  0  0  0  0
   -0.3363   -6.1172   27.5628 C   0  0  0  0  0  0  0  0  0  0  0  0
    3.0331   -7.4400   27.6362 C   0  0  0  0  0  0  0  0  0  0  0  0
    5.4553   -8.5933   27.9644 C   0  0  0  0  0  0  0  0  0  0  0  0
   -2.3870  -12.8440   19.2512 C   0  0  0  0  0  0  0  0  0  0  0  0
    0.5331   -7.6964   16.2751 C   0  0  0  0  0  0  0  0  0  0  0  0
   -0.6740  -10.8737   18.0482 C   0  0  0  0  0  0  0  0  0  0  0  0
    5.6751  -10.5870   29.7637 O   0  0  0  0  0  0  0  0  0  0  0  0
    1.7612   -5.6483   26.7172 C   0  0  0  0  0  0  0  0  0  0  0  0
    0.2221   -9.8326   17.4055 C   0  0  0  0  0  0  0  0  0  0  0  0
    4.3850   -9.0730   28.6745 C   0  0  0  0  0  0  0  0  0  0  0  0
  1  7  4  0
  1 22  4  0
  2 17  4  0
  2 20  4  0
  2 28  4  0
  3  6  1  0
  3 19  1  0
  4 19  1  0
  4 26  1  0
  5 17  4  0
  5 18  4  0
  6 20  1  0
  6 26  1  0
  7 24  4  0
  8 15  4  0
  8 24  4  0
  9 14  4  0
  9 21  4  0
 10 12  4  0
 10 27  4  0
 11 12  4  0
 11 23  4  0
 13 23  4  0
 13 27  4  0
 14 20  4  0
 15 22  4  0
 16 18  4  0
 16 25  2  0
 16 28  4  0
 21 28  4  0
 24 27  1  0
M  END
$$$$

 Created by Python create_sdf_string function

 28 31  0  0  0  0  0  0  0  0999 V2000
   -1.0054  -13.0622   19.1198 C   0  0  0  0  0  0  0  0  0  0  0  0
    3.1478   -8.5360   28.5161 C   0  0  0  0  0  0  0  0  0  0  0  0
    0.5798   -7.1906   27.9330 C   0  0  0  0  0  0  0  0  0  0  0  0
    0.3978   -5.1561   26.6955 C   0  0  0  0  0  0  0  0  0  0  0  0
    2.3063  -10.0533   30.0125 C   0  0  0  0  0  0  0  0  0  0  0  0
    1.8591   -6.8254   27.4685 N   0  0  0  0  0  0  0  0  0  0  0  0
   -0.2167  -12.1055   18.5568 C   0  0  0  0  0  0  0  0  0  0  0  0
   -2.0661  -10.6994   18.1916 C   0  0  0  0  0  0  0  0  0  0  0  0
    5.2703   -7.5691   27.1123 C   0  0  0  0  0  0  0  0  0  0  0  0
    1.6204   -9.9887   17.2935 C   0  0  0  0  0  0  0  0  0  0  0  0
    1.8931   -7.9265   16.2047 C   0  0  0  0  0  0  0  0  0  0  0  0
    2.4396   -9.0801   16.7132 C   0  0  0  0  0  0  0  0  0  0  0  0
   -0.2575   -8.6234   16.8582 C   0  0  0  0  0  0  0  0  0  0  0  0
    4.0614   -7.0367   27.0106 N   0  0  0  0  0  0  0  0  0  0  0  0
   -2.9133  -11.6279   18.7578 C   0  0  0  0  0  0  0  0  0  0  0  0
    4.5688  -10.1291   29.5758 C   0  0  0  0  0  0  0  0  0  0  0  0
    2.1008   -9.0410   29.1852 N   0  0  0  0  0  0  0  0  0  0  0  0
    3.4829  -10.5697   30.2091 N   0  0  0  0  0  0  0  0  0  0  0  0
   -0.3363   -6.1172   27.5628 C   0  0  0  0  0  0  0  0  0  0  0  0
    3.0331   -7.4400   27.6362 C   0  0  0  0  0  0  0  0  0  0  0  0
    5.4553   -8.5933   27.9644 C   0  0  0  0  0  0  0  0  0  0  0  0
   -2.3870  -12.8440   19.2512 C   0  0  0  0  0  0  0  0  0  0  0  0
    0.5331   -7.6964   16.2751 C   0  0  0  0  0  0  0  0  0  0  0  0
   -0.6740  -10.8737   18.0482 C   0  0  0  0  0  0  0  0  0  0  0  0
    5.6751  -10.5870   29.7637 O   0  0  0  0  0  0  0  0  0  0  0  0
    1.7612   -5.6483   26.7172 C   0  0  0  0  0  0  0  0  0  0  0  0
    0.2221   -9.8326   17.4055 C   0  0  0  0  0  0  0  0  0  0  0  0
    4.3850   -9.0730   28.6745 C   0  0  0  0  0  0  0  0  0  0  0  0
  1  7  4  0
  1 22  4  0
  2 17  4  0
  2 20  4  0
  2 28  4  0
  3  6  1  0
  3 19  1  0
  4 19  1  0
  4 26  1  0
  5 17  4  0
  5 18  4  0
  6 20  1  0
  6 26  1  0
  7 24  4  0
  8 15  4  0
  8 24  4  0
  9 14  4  0
  9 21  4  0
 10 12  4  0
 10 27  4  0
 11 12  4  0
 11 23  4  0
 13 23  4  0
 13 27  4  0
 14 20  4  0
 15 22  4  0
 16 18  4  0
 16 25  2  0
 16 28  4  0
 21 28  4  0
 24 27  1  0
M  END
$$$$

 Created by Python create_sdf_string function

 28 31  0  0  0  0  0  0  0  0999 V2000
   -1.0054  -13.0622   19.1198 C   0  0  0  0  0  0  0  0  0  0  0  0
    3.1478   -8.5360   28.5161 C   0  0  0  0  0  0  0  0  0  0  0  0
    0.5798   -7.1906   27.9330 C   0  0  0  0  0  0  0  0  0  0  0  0
    0.3978   -5.1561   26.6955 C   0  0  0  0  0  0  0  0  0  0  0  0
    2.3063  -10.0533   30.0125 C   0  0  0  0  0  0  0  0  0  0  0  0
    1.8591   -6.8254   27.4685 N   0  0  0  0  0  0  0  0  0  0  0  0
   -0.2167  -12.1055   18.5568 C   0  0  0  0  0  0  0  0  0  0  0  0
   -2.0661  -10.6994   18.1916 C   0  0  0  0  0  0  0  0  0  0  0  0
    5.2703   -7.5691   27.1123 C   0  0  0  0  0  0  0  0  0  0  0  0
    1.6204   -9.9887   17.2935 C   0  0  0  0  0  0  0  0  0  0  0  0
    1.8931   -7.9265   16.2047 C   0  0  0  0  0  0  0  0  0  0  0  0
    2.4396   -9.0801   16.7132 C   0  0  0  0  0  0  0  0  0  0  0  0
   -0.2575   -8.6234   16.8582 C   0  0  0  0  0  0  0  0  0  0  0  0
    4.0614   -7.0367   27.0106 N   0  0  0  0  0  0  0  0  0  0  0  0
   -2.9133  -11.6279   18.7578 C   0  0  0  0  0  0  0  0  0  0  0  0
    4.5688  -10.1291   29.5758 C   0  0  0  0  0  0  0  0  0  0  0  0
    2.1008   -9.0410   29.1852 N   0  0  0  0  0  0  0  0  0  0  0  0
    3.4829  -10.5697   30.2091 N   0  0  0  0  0  0  0  0  0  0  0  0
   -0.3363   -6.1172   27.5628 C   0  0  0  0  0  0  0  0  0  0  0  0
    3.0331   -7.4400   27.6362 C   0  0  0  0  0  0  0  0  0  0  0  0
    5.4553   -8.5933   27.9644 C   0  0  0  0  0  0  0  0  0  0  0  0
   -2.3870  -12.8440   19.2512 C   0  0  0  0  0  0  0  0  0  0  0  0
    0.5331   -7.6964   16.2751 C   0  0  0  0  0  0  0  0  0  0  0  0
   -0.6740  -10.8737   18.0482 C   0  0  0  0  0  0  0  0  0  0  0  0
    5.6751  -10.5870   29.7637 O   0  0  0  0  0  0  0  0  0  0  0  0
    1.7612   -5.6483   26.7172 C   0  0  0  0  0  0  0  0  0  0  0  0
    0.2221   -9.8326   17.4055 C   0  0  0  0  0  0  0  0  0  0  0  0
    4.3850   -9.0730   28.6745 C   0  0  0  0  0  0  0  0  0  0  0  0
  1  7  4  0
  1 22  4  0
  2 17  4  0
  2 20  4  0
  2 28  4  0
  3  6  1  0
  3 19  1  0
  4 19  1  0
  4 26  1  0
  5 17  4  0
  5 18  4  0
  6 20  1  0
  6 26  1  0
  7 24  4  0
  8 15  4  0
  8 24  4  0
  9 14  4  0
  9 21  4  0
 10 12  4  0
 10 27  4  0
 11 12  4  0
 11 23  4  0
 13 23  4  0
 13 27  4  0
 14 20  4  0
 15 22  4  0
 16 18  4  0
 16 25  2  0
 16 28  4  0
 21 28  4  0
 24 27  1  0
M  END
$$$$

 Created by Python create_sdf_string function

 28 31  0  0  0  0  0  0  0  0999 V2000
   -1.0054  -13.0622   19.1198 C   0  0  0  0  0  0  0  0  0  0  0  0
    3.1478   -8.5360   28.5161 C   0  0  0  0  0  0  0  0  0  0  0  0
    0.5798   -7.1906   27.9330 C   0  0  0  0  0  0  0  0  0  0  0  0
    0.3978   -5.1561   26.6955 C   0  0  0  0  0  0  0  0  0  0  0  0
    2.3063  -10.0533   30.0125 C   0  0  0  0  0  0  0  0  0  0  0  0
    1.8591   -6.8254   27.4685 N   0  0  0  0  0  0  0  0  0  0  0  0
   -0.2167  -12.1055   18.5568 C   0  0  0  0  0  0  0  0  0  0  0  0
   -2.0661  -10.6994   18.1916 C   0  0  0  0  0  0  0  0  0  0  0  0
    5.2703   -7.5691   27.1123 C   0  0  0  0  0  0  0  0  0  0  0  0
    1.6204   -9.9887   17.2935 C   0  0  0  0  0  0  0  0  0  0  0  0
    1.8931   -7.9265   16.2047 C   0  0  0  0  0  0  0  0  0  0  0  0
    2.4396   -9.0801   16.7132 C   0  0  0  0  0  0  0  0  0  0  0  0
   -0.2575   -8.6234   16.8582 C   0  0  0  0  0  0  0  0  0  0  0  0
    4.0614   -7.0367   27.0106 N   0  0  0  0  0  0  0  0  0  0  0  0
   -2.9133  -11.6279   18.7578 C   0  0  0  0  0  0  0  0  0  0  0  0
    4.5688  -10.1291   29.5758 C   0  0  0  0  0  0  0  0  0  0  0  0
    2.1008   -9.0410   29.1852 N   0  0  0  0  0  0  0  0  0  0  0  0
    3.4829  -10.5697   30.2091 N   0  0  0  0  0  0  0  0  0  0  0  0
   -0.3363   -6.1172   27.5628 C   0  0  0  0  0  0  0  0  0  0  0  0
    3.0331   -7.4400   27.6362 C   0  0  0  0  0  0  0  0  0  0  0  0
    5.4553   -8.5933   27.9644 C   0  0  0  0  0  0  0  0  0  0  0  0
   -2.3870  -12.8440   19.2512 C   0  0  0  0  0  0  0  0  0  0  0  0
    0.5331   -7.6964   16.2751 C   0  0  0  0  0  0  0  0  0  0  0  0
   -0.6740  -10.8737   18.0482 C   0  0  0  0  0  0  0  0  0  0  0  0
    5.6751  -10.5870   29.7637 O   0  0  0  0  0  0  0  0  0  0  0  0
    1.7612   -5.6483   26.7172 C   0  0  0  0  0  0  0  0  0  0  0  0
    0.2221   -9.8326   17.4055 C   0  0  0  0  0  0  0  0  0  0  0  0
    4.3850   -9.0730   28.6745 C   0  0  0  0  0  0  0  0  0  0  0  0
  1  7  4  0
  1 22  4  0
  2 17  4  0
  2 20  4  0
  2 28  4  0
  3  6  1  0
  3 19  1  0
  4 19  1  0
  4 26  1  0
  5 17  4  0
  5 18  4  0
  6 20  1  0
  6 26  1  0
  7 24  4  0
  8 15  4  0
  8 24  4  0
  9 14  4  0
  9 21  4  0
 10 12  4  0
 10 27  4  0
 11 12  4  0
 11 23  4  0
 13 23  4  0
 13 27  4  0
 14 20  4  0
 15 22  4  0
 16 18  4  0
 16 25  2  0
 16 28  4  0
 21 28  4  0
 24 27  1  0
M  END
$$$$

 Created by Python create_sdf_string function

 28 31  0  0  0  0  0  0  0  0999 V2000
   -1.0054  -13.0622   19.1198 C   0  0  0  0  0  0  0  0  0  0  0  0
    3.1478   -8.5360   28.5161 C   0  0  0  0  0  0  0  0  0  0  0  0
    0.5798   -7.1906   27.9330 C   0  0  0  0  0  0  0  0  0  0  0  0
    0.3978   -5.1561   26.6955 C   0  0  0  0  0  0  0  0  0  0  0  0
    2.3063  -10.0533   30.0125 C   0  0  0  0  0  0  0  0  0  0  0  0
    1.8591   -6.8254   27.4685 N   0  0  0  0  0  0  0  0  0  0  0  0
   -0.2167  -12.1055   18.5568 C   0  0  0  0  0  0  0  0  0  0  0  0
   -2.0661  -10.6994   18.1916 C   0  0  0  0  0  0  0  0  0  0  0  0
    5.2703   -7.5691   27.1123 C   0  0  0  0  0  0  0  0  0  0  0  0
    1.6204   -9.9887   17.2935 C   0  0  0  0  0  0  0  0  0  0  0  0
    1.8931   -7.9265   16.2047 C   0  0  0  0  0  0  0  0  0  0  0  0
    2.4396   -9.0801   16.7132 C   0  0  0  0  0  0  0  0  0  0  0  0
   -0.2575   -8.6234   16.8582 C   0  0  0  0  0  0  0  0  0  0  0  0
    4.0614   -7.0367   27.0106 N   0  0  0  0  0  0  0  0  0  0  0  0
   -2.9133  -11.6279   18.7578 C   0  0  0  0  0  0  0  0  0  0  0  0
    4.5688  -10.1291   29.5758 C   0  0  0  0  0  0  0  0  0  0  0  0
    2.1008   -9.0410   29.1852 N   0  0  0  0  0  0  0  0  0  0  0  0
    3.4829  -10.5697   30.2091 N   0  0  0  0  0  0  0  0  0  0  0  0
   -0.3363   -6.1172   27.5628 C   0  0  0  0  0  0  0  0  0  0  0  0
    3.0331   -7.4400   27.6362 C   0  0  0  0  0  0  0  0  0  0  0  0
    5.4553   -8.5933   27.9644 C   0  0  0  0  0  0  0  0  0  0  0  0
   -2.3870  -12.8440   19.2512 C   0  0  0  0  0  0  0  0  0  0  0  0
    0.5331   -7.6964   16.2751 C   0  0  0  0  0  0  0  0  0  0  0  0
   -0.6740  -10.8737   18.0482 C   0  0  0  0  0  0  0  0  0  0  0  0
    5.6751  -10.5870   29.7637 O   0  0  0  0  0  0  0  0  0  0  0  0
    1.7612   -5.6483   26.7172 C   0  0  0  0  0  0  0  0  0  0  0  0
    0.2221   -9.8326   17.4055 C   0  0  0  0  0  0  0  0  0  0  0  0
    4.3850   -9.0730   28.6745 C   0  0  0  0  0  0  0  0  0  0  0  0
  1  7  4  0
  1 22  4  0
  2 17  4  0
  2 20  4  0
  2 28  4  0
  3  6  1  0
  3 19  1  0
  4 19  1  0
  4 26  1  0
  5 17  4  0
  5 18  4  0
  6 20  1  0
  6 26  1  0
  7 24  4  0
  8 15  4  0
  8 24  4  0
  9 14  4  0
  9 21  4  0
 10 12  4  0
 10 27  4  0
 11 12  4  0
 11 23  4  0
 13 23  4  0
 13 27  4  0
 14 20  4  0
 15 22  4  0
 16 18  4  0
 16 25  2  0
 16 28  4  0
 21 28  4  0
 24 27  1  0
M  END
$$$$

 Created by Python create_sdf_string function

 28 31  0  0  0  0  0  0  0  0999 V2000
   -1.0054  -13.0622   19.1198 C   0  0  0  0  0  0  0  0  0  0  0  0
    3.1478   -8.5360   28.5161 C   0  0  0  0  0  0  0  0  0  0  0  0
    0.5798   -7.1906   27.9330 C   0  0  0  0  0  0  0  0  0  0  0  0
    0.3978   -5.1561   26.6955 C   0  0  0  0  0  0  0  0  0  0  0  0
    2.3063  -10.0533   30.0125 C   0  0  0  0  0  0  0  0  0  0  0  0
    1.8591   -6.8254   27.4685 N   0  0  0  0  0  0  0  0  0  0  0  0
   -0.2167  -12.1055   18.5568 C   0  0  0  0  0  0  0  0  0  0  0  0
   -2.0661  -10.6994   18.1916 C   0  0  0  0  0  0  0  0  0  0  0  0
    5.2703   -7.5691   27.1123 C   0  0  0  0  0  0  0  0  0  0  0  0
    1.6204   -9.9887   17.2935 C   0  0  0  0  0  0  0  0  0  0  0  0
    1.8931   -7.9265   16.2047 C   0  0  0  0  0  0  0  0  0  0  0  0
    2.4396   -9.0801   16.7132 C   0  0  0  0  0  0  0  0  0  0  0  0
   -0.2575   -8.6234   16.8582 C   0  0  0  0  0  0  0  0  0  0  0  0
    4.0614   -7.0367   27.0106 N   0  0  0  0  0  0  0  0  0  0  0  0
   -2.9133  -11.6279   18.7578 C   0  0  0  0  0  0  0  0  0  0  0  0
    4.5688  -10.1291   29.5758 C   0  0  0  0  0  0  0  0  0  0  0  0
    2.1008   -9.0410   29.1852 N   0  0  0  0  0  0  0  0  0  0  0  0
    3.4829  -10.5697   30.2091 N   0  0  0  0  0  0  0  0  0  0  0  0
   -0.3363   -6.1172   27.5628 C   0  0  0  0  0  0  0  0  0  0  0  0
    3.0331   -7.4400   27.6362 C   0  0  0  0  0  0  0  0  0  0  0  0
    5.4553   -8.5933   27.9644 C   0  0  0  0  0  0  0  0  0  0  0  0
   -2.3870  -12.8440   19.2512 C   0  0  0  0  0  0  0  0  0  0  0  0
    0.5331   -7.6964   16.2751 C   0  0  0  0  0  0  0  0  0  0  0  0
   -0.6740  -10.8737   18.0482 C   0  0  0  0  0  0  0  0  0  0  0  0
    5.6751  -10.5870   29.7637 O   0  0  0  0  0  0  0  0  0  0  0  0
    1.7612   -5.6483   26.7172 C   0  0  0  0  0  0  0  0  0  0  0  0
    0.2221   -9.8326   17.4055 C   0  0  0  0  0  0  0  0  0  0  0  0
    4.3850   -9.0730   28.6745 C   0  0  0  0  0  0  0  0  0  0  0  0
  1  7  4  0
  1 22  4  0
  2 17  4  0
  2 20  4  0
  2 28  4  0
  3  6  1  0
  3 19  1  0
  4 19  1  0
  4 26  1  0
  5 17  4  0
  5 18  4  0
  6 20  1  0
  6 26  1  0
  7 24  4  0
  8 15  4  0
  8 24  4  0
  9 14  4  0
  9 21  4  0
 10 12  4  0
 10 27  4  0
 11 12  4  0
 11 23  4  0
 13 23  4  0
 13 27  4  0
 14 20  4  0
 15 22  4  0
 16 18  4  0
 16 25  2  0
 16 28  4  0
 21 28  4  0
 24 27  1  0
M  END
$$$$

 Created by Python create_sdf_string function

 28 31  0  0  0  0  0  0  0  0999 V2000
   -1.0054  -13.0622   19.1198 C   0  0  0  0  0  0  0  0  0  0  0  0
    3.1478   -8.5360   28.5161 C   0  0  0  0  0  0  0  0  0  0  0  0
    0.5798   -7.1906   27.9330 C   0  0  0  0  0  0  0  0  0  0  0  0
    0.3978   -5.1561   26.6955 C   0  0  0  0  0  0  0  0  0  0  0  0
    2.3063  -10.0533   30.0125 C   0  0  0  0  0  0  0  0  0  0  0  0
    1.8591   -6.8254   27.4685 N   0  0  0  0  0  0  0  0  0  0  0  0
   -0.2167  -12.1055   18.5568 C   0  0  0  0  0  0  0  0  0  0  0  0
   -2.0661  -10.6994   18.1916 C   0  0  0  0  0  0  0  0  0  0  0  0
    5.2703   -7.5691   27.1123 C   0  0  0  0  0  0  0  0  0  0  0  0
    1.6204   -9.9887   17.2935 C   0  0  0  0  0  0  0  0  0  0  0  0
    1.8931   -7.9265   16.2047 C   0  0  0  0  0  0  0  0  0  0  0  0
    2.4396   -9.0801   16.7132 C   0  0  0  0  0  0  0  0  0  0  0  0
   -0.2575   -8.6234   16.8582 C   0  0  0  0  0  0  0  0  0  0  0  0
    4.0614   -7.0367   27.0106 N   0  0  0  0  0  0  0  0  0  0  0  0
   -2.9133  -11.6279   18.7578 C   0  0  0  0  0  0  0  0  0  0  0  0
    4.5688  -10.1291   29.5758 C   0  0  0  0  0  0  0  0  0  0  0  0
    2.1008   -9.0410   29.1852 N   0  0  0  0  0  0  0  0  0  0  0  0
    3.4829  -10.5697   30.2091 N   0  0  0  0  0  0  0  0  0  0  0  0
   -0.3363   -6.1172   27.5628 C   0  0  0  0  0  0  0  0  0  0  0  0
    3.0331   -7.4400   27.6362 C   0  0  0  0  0  0  0  0  0  0  0  0
    5.4553   -8.5933   27.9644 C   0  0  0  0  0  0  0  0  0  0  0  0
   -2.3870  -12.8440   19.2512 C   0  0  0  0  0  0  0  0  0  0  0  0
    0.5331   -7.6964   16.2751 C   0  0  0  0  0  0  0  0  0  0  0  0
   -0.6740  -10.8737   18.0482 C   0  0  0  0  0  0  0  0  0  0  0  0
    5.6751  -10.5870   29.7637 O   0  0  0  0  0  0  0  0  0  0  0  0
    1.7612   -5.6483   26.7172 C   0  0  0  0  0  0  0  0  0  0  0  0
    0.2221   -9.8326   17.4055 C   0  0  0  0  0  0  0  0  0  0  0  0
    4.3850   -9.0730   28.6745 C   0  0  0  0  0  0  0  0  0  0  0  0
  1  7  4  0
  1 22  4  0
  2 17  4  0
  2 20  4  0
  2 28  4  0
  3  6  1  0
  3 19  1  0
  4 19  1  0
  4 26  1  0
  5 17  4  0
  5 18  4  0
  6 20  1  0
  6 26  1  0
  7 24  4  0
  8 15  4  0
  8 24  4  0
  9 14  4  0
  9 21  4  0
 10 12  4  0
 10 27  4  0
 11 12  4  0
 11 23  4  0
 13 23  4  0
 13 27  4  0
 14 20  4  0
 15 22  4  0
 16 18  4  0
 16 25  2  0
 16 28  4  0
 21 28  4  0
 24 27  1  0
M  END
$$$$

 Created by Python create_sdf_string function

 28 31  0  0  0  0  0  0  0  0999 V2000
   -1.0054  -13.0622   19.1198 C   0  0  0  0  0  0  0  0  0  0  0  0
    3.1478   -8.5360   28.5161 C   0  0  0  0  0  0  0  0  0  0  0  0
    0.5798   -7.1906   27.9330 C   0  0  0  0  0  0  0  0  0  0  0  0
    0.3978   -5.1561   26.6955 C   0  0  0  0  0  0  0  0  0  0  0  0
    2.3063  -10.0533   30.0125 C   0  0  0  0  0  0  0  0  0  0  0  0
    1.8591   -6.8254   27.4685 N   0  0  0  0  0  0  0  0  0  0  0  0
   -0.2167  -12.1055   18.5568 C   0  0  0  0  0  0  0  0  0  0  0  0
   -2.0661  -10.6994   18.1916 C   0  0  0  0  0  0  0  0  0  0  0  0
    5.2703   -7.5691   27.1123 C   0  0  0  0  0  0  0  0  0  0  0  0
    1.6204   -9.9887   17.2935 C   0  0  0  0  0  0  0  0  0  0  0  0
    1.8931   -7.9265   16.2047 C   0  0  0  0  0  0  0  0  0  0  0  0
    2.4396   -9.0801   16.7132 C   0  0  0  0  0  0  0  0  0  0  0  0
   -0.2575   -8.6234   16.8582 C   0  0  0  0  0  0  0  0  0  0  0  0
    4.0614   -7.0367   27.0106 N   0  0  0  0  0  0  0  0  0  0  0  0
   -2.9133  -11.6279   18.7578 C   0  0  0  0  0  0  0  0  0  0  0  0
    4.5688  -10.1291   29.5758 C   0  0  0  0  0  0  0  0  0  0  0  0
    2.1008   -9.0410   29.1852 N   0  0  0  0  0  0  0  0  0  0  0  0
    3.4829  -10.5697   30.2091 N   0  0  0  0  0  0  0  0  0  0  0  0
   -0.3363   -6.1172   27.5628 C   0  0  0  0  0  0  0  0  0  0  0  0
    3.0331   -7.4400   27.6362 C   0  0  0  0  0  0  0  0  0  0  0  0
    5.4553   -8.5933   27.9644 C   0  0  0  0  0  0  0  0  0  0  0  0
   -2.3870  -12.8440   19.2512 C   0  0  0  0  0  0  0  0  0  0  0  0
    0.5331   -7.6964   16.2751 C   0  0  0  0  0  0  0  0  0  0  0  0
   -0.6740  -10.8737   18.0482 C   0  0  0  0  0  0  0  0  0  0  0  0
    5.6751  -10.5870   29.7637 O   0  0  0  0  0  0  0  0  0  0  0  0
    1.7612   -5.6483   26.7172 C   0  0  0  0  0  0  0  0  0  0  0  0
    0.2221   -9.8326   17.4055 C   0  0  0  0  0  0  0  0  0  0  0  0
    4.3850   -9.0730   28.6745 C   0  0  0  0  0  0  0  0  0  0  0  0
  1  7  4  0
  1 22  4  0
  2 17  4  0
  2 20  4  0
  2 28  4  0
  3  6  1  0
  3 19  1  0
  4 19  1  0
  4 26  1  0
  5 17  4  0
  5 18  4  0
  6 20  1  0
  6 26  1  0
  7 24  4  0
  8 15  4  0
  8 24  4  0
  9 14  4  0
  9 21  4  0
 10 12  4  0
 10 27  4  0
 11 12  4  0
 11 23  4  0
 13 23  4  0
 13 27  4  0
 14 20  4  0
 15 22  4  0
 16 18  4  0
 16 25  2  0
 16 28  4  0
 21 28  4  0
 24 27  1  0
M  END
$$$$

 Created by Python create_sdf_string function

 28 31  0  0  0  0  0  0  0  0999 V2000
   -1.0054  -13.0622   19.1198 C   0  0  0  0  0  0  0  0  0  0  0  0
    3.1478   -8.5360   28.5161 C   0  0  0  0  0  0  0  0  0  0  0  0
    0.5798   -7.1906   27.9330 C   0  0  0  0  0  0  0  0  0  0  0  0
    0.3978   -5.1561   26.6955 C   0  0  0  0  0  0  0  0  0  0  0  0
    2.3063  -10.0533   30.0125 C   0  0  0  0  0  0  0  0  0  0  0  0
    1.8591   -6.8254   27.4685 N   0  0  0  0  0  0  0  0  0  0  0  0
   -0.2167  -12.1055   18.5568 C   0  0  0  0  0  0  0  0  0  0  0  0
   -2.0661  -10.6994   18.1916 C   0  0  0  0  0  0  0  0  0  0  0  0
    5.2703   -7.5691   27.1123 C   0  0  0  0  0  0  0  0  0  0  0  0
    1.6204   -9.9887   17.2935 C   0  0  0  0  0  0  0  0  0  0  0  0
    1.8931   -7.9265   16.2047 C   0  0  0  0  0  0  0  0  0  0  0  0
    2.4396   -9.0801   16.7132 C   0  0  0  0  0  0  0  0  0  0  0  0
   -0.2575   -8.6234   16.8582 C   0  0  0  0  0  0  0  0  0  0  0  0
    4.0614   -7.0367   27.0106 N   0  0  0  0  0  0  0  0  0  0  0  0
   -2.9133  -11.6279   18.7578 C   0  0  0  0  0  0  0  0  0  0  0  0
    4.5688  -10.1291   29.5758 C   0  0  0  0  0  0  0  0  0  0  0  0
    2.1008   -9.0410   29.1852 N   0  0  0  0  0  0  0  0  0  0  0  0
    3.4829  -10.5697   30.2091 N   0  0  0  0  0  0  0  0  0  0  0  0
   -0.3363   -6.1172   27.5628 C   0  0  0  0  0  0  0  0  0  0  0  0
    3.0331   -7.4400   27.6362 C   0  0  0  0  0  0  0  0  0  0  0  0
    5.4553   -8.5933   27.9644 C   0  0  0  0  0  0  0  0  0  0  0  0
   -2.3870  -12.8440   19.2512 C   0  0  0  0  0  0  0  0  0  0  0  0
    0.5331   -7.6964   16.2751 C   0  0  0  0  0  0  0  0  0  0  0  0
   -0.6740  -10.8737   18.0482 C   0  0  0  0  0  0  0  0  0  0  0  0
    5.6751  -10.5870   29.7637 O   0  0  0  0  0  0  0  0  0  0  0  0
    1.7612   -5.6483   26.7172 C   0  0  0  0  0  0  0  0  0  0  0  0
    0.2221   -9.8326   17.4055 C   0  0  0  0  0  0  0  0  0  0  0  0
    4.3850   -9.0730   28.6745 C   0  0  0  0  0  0  0  0  0  0  0  0
  1  7  4  0
  1 22  4  0
  2 17  4  0
  2 20  4  0
  2 28  4  0
  3  6  1  0
  3 19  1  0
  4 19  1  0
  4 26  1  0
  5 17  4  0
  5 18  4  0
  6 20  1  0
  6 26  1  0
  7 24  4  0
  8 15  4  0
  8 24  4  0
  9 14  4  0
  9 21  4  0
 10 12  4  0
 10 27  4  0
 11 12  4  0
 11 23  4  0
 13 23  4  0
 13 27  4  0
 14 20  4  0
 15 22  4  0
 16 18  4  0
 16 25  2  0
 16 28  4  0
 21 28  4  0
 24 27  1  0
M  END
$$$$

 Created by Python create_sdf_string function

 28 31  0  0  0  0  0  0  0  0999 V2000
   -1.0054  -13.0622   19.1198 C   0  0  0  0  0  0  0  0  0  0  0  0
    3.1478   -8.5360   28.5161 C   0  0  0  0  0  0  0  0  0  0  0  0
    0.5798   -7.1906   27.9330 C   0  0  0  0  0  0  0  0  0  0  0  0
    0.3978   -5.1561   26.6955 C   0  0  0  0  0  0  0  0  0  0  0  0
    2.3063  -10.0533   30.0125 C   0  0  0  0  0  0  0  0  0  0  0  0
    1.8591   -6.8254   27.4685 N   0  0  0  0  0  0  0  0  0  0  0  0
   -0.2167  -12.1055   18.5568 C   0  0  0  0  0  0  0  0  0  0  0  0
   -2.0661  -10.6994   18.1916 C   0  0  0  0  0  0  0  0  0  0  0  0
    5.2703   -7.5691   27.1123 C   0  0  0  0  0  0  0  0  0  0  0  0
    1.6204   -9.9887   17.2935 C   0  0  0  0  0  0  0  0  0  0  0  0
    1.8931   -7.9265   16.2047 C   0  0  0  0  0  0  0  0  0  0  0  0
    2.4396   -9.0801   16.7132 C   0  0  0  0  0  0  0  0  0  0  0  0
   -0.2575   -8.6234   16.8582 C   0  0  0  0  0  0  0  0  0  0  0  0
    4.0614   -7.0367   27.0106 N   0  0  0  0  0  0  0  0  0  0  0  0
   -2.9133  -11.6279   18.7578 C   0  0  0  0  0  0  0  0  0  0  0  0
    4.5688  -10.1291   29.5758 C   0  0  0  0  0  0  0  0  0  0  0  0
    2.1008   -9.0410   29.1852 N   0  0  0  0  0  0  0  0  0  0  0  0
    3.4829  -10.5697   30.2091 N   0  0  0  0  0  0  0  0  0  0  0  0
   -0.3363   -6.1172   27.5628 C   0  0  0  0  0  0  0  0  0  0  0  0
    3.0331   -7.4400   27.6362 C   0  0  0  0  0  0  0  0  0  0  0  0
    5.4553   -8.5933   27.9644 C   0  0  0  0  0  0  0  0  0  0  0  0
   -2.3870  -12.8440   19.2512 C   0  0  0  0  0  0  0  0  0  0  0  0
    0.5331   -7.6964   16.2751 C   0  0  0  0  0  0  0  0  0  0  0  0
   -0.6740  -10.8737   18.0482 C   0  0  0  0  0  0  0  0  0  0  0  0
    5.6751  -10.5870   29.7637 O   0  0  0  0  0  0  0  0  0  0  0  0
    1.7612   -5.6483   26.7172 C   0  0  0  0  0  0  0  0  0  0  0  0
    0.2221   -9.8326   17.4055 C   0  0  0  0  0  0  0  0  0  0  0  0
    4.3850   -9.0730   28.6745 C   0  0  0  0  0  0  0  0  0  0  0  0
  1  7  4  0
  1 22  4  0
  2 17  4  0
  2 20  4  0
  2 28  4  0
  3  6  1  0
  3 19  1  0
  4 19  1  0
  4 26  1  0
  5 17  4  0
  5 18  4  0
  6 20  1  0
  6 26  1  0
  7 24  4  0
  8 15  4  0
  8 24  4  0
  9 14  4  0
  9 21  4  0
 10 12  4  0
 10 27  4  0
 11 12  4  0
 11 23  4  0
 13 23  4  0
 13 27  4  0
 14 20  4  0
 15 22  4  0
 16 18  4  0
 16 25  2  0
 16 28  4  0
 21 28  4  0
 24 27  1  0
M  END
$$$$

 Created by Python create_sdf_string function

 28 31  0  0  0  0  0  0  0  0999 V2000
   -1.0054  -13.0622   19.1198 C   0  0  0  0  0  0  0  0  0  0  0  0
    3.1478   -8.5360   28.5161 C   0  0  0  0  0  0  0  0  0  0  0  0
    0.5798   -7.1906   27.9330 C   0  0  0  0  0  0  0  0  0  0  0  0
    0.3978   -5.1561   26.6955 C   0  0  0  0  0  0  0  0  0  0  0  0
    2.3063  -10.0533   30.0125 C   0  0  0  0  0  0  0  0  0  0  0  0
    1.8591   -6.8254   27.4685 N   0  0  0  0  0  0  0  0  0  0  0  0
   -0.2167  -12.1055   18.5568 C   0  0  0  0  0  0  0  0  0  0  0  0
   -2.0661  -10.6994   18.1916 C   0  0  0  0  0  0  0  0  0  0  0  0
    5.2703   -7.5691   27.1123 C   0  0  0  0  0  0  0  0  0  0  0  0
    1.6204   -9.9887   17.2935 C   0  0  0  0  0  0  0  0  0  0  0  0
    1.8931   -7.9265   16.2047 C   0  0  0  0  0  0  0  0  0  0  0  0
    2.4396   -9.0801   16.7132 C   0  0  0  0  0  0  0  0  0  0  0  0
   -0.2575   -8.6234   16.8582 C   0  0  0  0  0  0  0  0  0  0  0  0
    4.0614   -7.0367   27.0106 N   0  0  0  0  0  0  0  0  0  0  0  0
   -2.9133  -11.6279   18.7578 C   0  0  0  0  0  0  0  0  0  0  0  0
    4.5688  -10.1291   29.5758 C   0  0  0  0  0  0  0  0  0  0  0  0
    2.1008   -9.0410   29.1852 N   0  0  0  0  0  0  0  0  0  0  0  0
    3.4829  -10.5697   30.2091 N   0  0  0  0  0  0  0  0  0  0  0  0
   -0.3363   -6.1172   27.5628 C   0  0  0  0  0  0  0  0  0  0  0  0
    3.0331   -7.4400   27.6362 C   0  0  0  0  0  0  0  0  0  0  0  0
    5.4553   -8.5933   27.9644 C   0  0  0  0  0  0  0  0  0  0  0  0
   -2.3870  -12.8440   19.2512 C   0  0  0  0  0  0  0  0  0  0  0  0
    0.5331   -7.6964   16.2751 C   0  0  0  0  0  0  0  0  0  0  0  0
   -0.6740  -10.8737   18.0482 C   0  0  0  0  0  0  0  0  0  0  0  0
    5.6751  -10.5870   29.7637 O   0  0  0  0  0  0  0  0  0  0  0  0
    1.7612   -5.6483   26.7172 C   0  0  0  0  0  0  0  0  0  0  0  0
    0.2221   -9.8326   17.4055 C   0  0  0  0  0  0  0  0  0  0  0  0
    4.3850   -9.0730   28.6745 C   0  0  0  0  0  0  0  0  0  0  0  0
  1  7  4  0
  1 22  4  0
  2 17  4  0
  2 20  4  0
  2 28  4  0
  3  6  1  0
  3 19  1  0
  4 19  1  0
  4 26  1  0
  5 17  4  0
  5 18  4  0
  6 20  1  0
  6 26  1  0
  7 24  4  0
  8 15  4  0
  8 24  4  0
  9 14  4  0
  9 21  4  0
 10 12  4  0
 10 27  4  0
 11 12  4  0
 11 23  4  0
 13 23  4  0
 13 27  4  0
 14 20  4  0
 15 22  4  0
 16 18  4  0
 16 25  2  0
 16 28  4  0
 21 28  4  0
 24 27  1  0
M  END
$$$$

 Created by Python create_sdf_string function

 28 31  0  0  0  0  0  0  0  0999 V2000
   -1.0054  -13.0622   19.1198 C   0  0  0  0  0  0  0  0  0  0  0  0
    3.1478   -8.5360   28.5161 C   0  0  0  0  0  0  0  0  0  0  0  0
    0.5798   -7.1906   27.9330 C   0  0  0  0  0  0  0  0  0  0  0  0
    0.3978   -5.1561   26.6955 C   0  0  0  0  0  0  0  0  0  0  0  0
    2.3063  -10.0533   30.0125 C   0  0  0  0  0  0  0  0  0  0  0  0
    1.8591   -6.8254   27.4685 N   0  0  0  0  0  0  0  0  0  0  0  0
   -0.2167  -12.1055   18.5568 C   0  0  0  0  0  0  0  0  0  0  0  0
   -2.0661  -10.6994   18.1916 C   0  0  0  0  0  0  0  0  0  0  0  0
    5.2703   -7.5691   27.1123 C   0  0  0  0  0  0  0  0  0  0  0  0
    1.6204   -9.9887   17.2935 C   0  0  0  0  0  0  0  0  0  0  0  0
    1.8931   -7.9265   16.2047 C   0  0  0  0  0  0  0  0  0  0  0  0
    2.4396   -9.0801   16.7132 C   0  0  0  0  0  0  0  0  0  0  0  0
   -0.2575   -8.6234   16.8582 C   0  0  0  0  0  0  0  0  0  0  0  0
    4.0614   -7.0367   27.0106 N   0  0  0  0  0  0  0  0  0  0  0  0
   -2.9133  -11.6279   18.7578 C   0  0  0  0  0  0  0  0  0  0  0  0
    4.5688  -10.1291   29.5758 C   0  0  0  0  0  0  0  0  0  0  0  0
    2.1008   -9.0410   29.1852 N   0  0  0  0  0  0  0  0  0  0  0  0
    3.4829  -10.5697   30.2091 N   0  0  0  0  0  0  0  0  0  0  0  0
   -0.3363   -6.1172   27.5628 C   0  0  0  0  0  0  0  0  0  0  0  0
    3.0331   -7.4400   27.6362 C   0  0  0  0  0  0  0  0  0  0  0  0
    5.4553   -8.5933   27.9644 C   0  0  0  0  0  0  0  0  0  0  0  0
   -2.3870  -12.8440   19.2512 C   0  0  0  0  0  0  0  0  0  0  0  0
    0.5331   -7.6964   16.2751 C   0  0  0  0  0  0  0  0  0  0  0  0
   -0.6740  -10.8737   18.0482 C   0  0  0  0  0  0  0  0  0  0  0  0
    5.6751  -10.5870   29.7637 O   0  0  0  0  0  0  0  0  0  0  0  0
    1.7612   -5.6483   26.7172 C   0  0  0  0  0  0  0  0  0  0  0  0
    0.2221   -9.8326   17.4055 C   0  0  0  0  0  0  0  0  0  0  0  0
    4.3850   -9.0730   28.6745 C   0  0  0  0  0  0  0  0  0  0  0  0
  1  7  4  0
  1 22  4  0
  2 17  4  0
  2 20  4  0
  2 28  4  0
  3  6  1  0
  3 19  1  0
  4 19  1  0
  4 26  1  0
  5 17  4  0
  5 18  4  0
  6 20  1  0
  6 26  1  0
  7 24  4  0
  8 15  4  0
  8 24  4  0
  9 14  4  0
  9 21  4  0
 10 12  4  0
 10 27  4  0
 11 12  4  0
 11 23  4  0
 13 23  4  0
 13 27  4  0
 14 20  4  0
 15 22  4  0
 16 18  4  0
 16 25  2  0
 16 28  4  0
 21 28  4  0
 24 27  1  0
M  END
$$$$

 Created by Python create_sdf_string function

 28 31  0  0  0  0  0  0  0  0999 V2000
   -1.0054  -13.0622   19.1198 C   0  0  0  0  0  0  0  0  0  0  0  0
    3.1478   -8.5360   28.5161 C   0  0  0  0  0  0  0  0  0  0  0  0
    0.5798   -7.1906   27.9330 C   0  0  0  0  0  0  0  0  0  0  0  0
    0.3978   -5.1561   26.6955 C   0  0  0  0  0  0  0  0  0  0  0  0
    2.3063  -10.0533   30.0125 C   0  0  0  0  0  0  0  0  0  0  0  0
    1.8591   -6.8254   27.4685 N   0  0  0  0  0  0  0  0  0  0  0  0
   -0.2167  -12.1055   18.5568 C   0  0  0  0  0  0  0  0  0  0  0  0
   -2.0661  -10.6994   18.1916 C   0  0  0  0  0  0  0  0  0  0  0  0
    5.2703   -7.5691   27.1123 C   0  0  0  0  0  0  0  0  0  0  0  0
    1.6204   -9.9887   17.2935 C   0  0  0  0  0  0  0  0  0  0  0  0
    1.8931   -7.9265   16.2047 C   0  0  0  0  0  0  0  0  0  0  0  0
    2.4396   -9.0801   16.7132 C   0  0  0  0  0  0  0  0  0  0  0  0
   -0.2575   -8.6234   16.8582 C   0  0  0  0  0  0  0  0  0  0  0  0
    4.0614   -7.0367   27.0106 N   0  0  0  0  0  0  0  0  0  0  0  0
   -2.9133  -11.6279   18.7578 C   0  0  0  0  0  0  0  0  0  0  0  0
    4.5688  -10.1291   29.5758 C   0  0  0  0  0  0  0  0  0  0  0  0
    2.1008   -9.0410   29.1852 N   0  0  0  0  0  0  0  0  0  0  0  0
    3.4829  -10.5697   30.2091 N   0  0  0  0  0  0  0  0  0  0  0  0
   -0.3363   -6.1172   27.5628 C   0  0  0  0  0  0  0  0  0  0  0  0
    3.0331   -7.4400   27.6362 C   0  0  0  0  0  0  0  0  0  0  0  0
    5.4553   -8.5933   27.9644 C   0  0  0  0  0  0  0  0  0  0  0  0
   -2.3870  -12.8440   19.2512 C   0  0  0  0  0  0  0  0  0  0  0  0
    0.5331   -7.6964   16.2751 C   0  0  0  0  0  0  0  0  0  0  0  0
   -0.6740  -10.8737   18.0482 C   0  0  0  0  0  0  0  0  0  0  0  0
    5.6751  -10.5870   29.7637 O   0  0  0  0  0  0  0  0  0  0  0  0
    1.7612   -5.6483   26.7172 C   0  0  0  0  0  0  0  0  0  0  0  0
    0.2221   -9.8326   17.4055 C   0  0  0  0  0  0  0  0  0  0  0  0
    4.3850   -9.0730   28.6745 C   0  0  0  0  0  0  0  0  0  0  0  0
  1  7  4  0
  1 22  4  0
  2 17  4  0
  2 20  4  0
  2 28  4  0
  3  6  1  0
  3 19  1  0
  4 19  1  0
  4 26  1  0
  5 17  4  0
  5 18  4  0
  6 20  1  0
  6 26  1  0
  7 24  4  0
  8 15  4  0
  8 24  4  0
  9 14  4  0
  9 21  4  0
 10 12  4  0
 10 27  4  0
 11 12  4  0
 11 23  4  0
 13 23  4  0
 13 27  4  0
 14 20  4  0
 15 22  4  0
 16 18  4  0
 16 25  2  0
 16 28  4  0
 21 28  4  0
 24 27  1  0
M  END
$$$$

 Created by Python create_sdf_string function

 28 31  0  0  0  0  0  0  0  0999 V2000
   -1.0054  -13.0622   19.1198 C   0  0  0  0  0  0  0  0  0  0  0  0
    3.1478   -8.5360   28.5161 C   0  0  0  0  0  0  0  0  0  0  0  0
    0.5798   -7.1906   27.9330 C   0  0  0  0  0  0  0  0  0  0  0  0
    0.3978   -5.1561   26.6955 C   0  0  0  0  0  0  0  0  0  0  0  0
    2.3063  -10.0533   30.0125 C   0  0  0  0  0  0  0  0  0  0  0  0
    1.8591   -6.8254   27.4685 N   0  0  0  0  0  0  0  0  0  0  0  0
   -0.2167  -12.1055   18.5568 C   0  0  0  0  0  0  0  0  0  0  0  0
   -2.0661  -10.6994   18.1916 C   0  0  0  0  0  0  0  0  0  0  0  0
    5.2703   -7.5691   27.1123 C   0  0  0  0  0  0  0  0  0  0  0  0
    1.6204   -9.9887   17.2935 C   0  0  0  0  0  0  0  0  0  0  0  0
    1.8931   -7.9265   16.2047 C   0  0  0  0  0  0  0  0  0  0  0  0
    2.4396   -9.0801   16.7132 C   0  0  0  0  0  0  0  0  0  0  0  0
   -0.2575   -8.6234   16.8582 C   0  0  0  0  0  0  0  0  0  0  0  0
    4.0614   -7.0367   27.0106 N   0  0  0  0  0  0  0  0  0  0  0  0
   -2.9133  -11.6279   18.7578 C   0  0  0  0  0  0  0  0  0  0  0  0
    4.5688  -10.1291   29.5758 C   0  0  0  0  0  0  0  0  0  0  0  0
    2.1008   -9.0410   29.1852 N   0  0  0  0  0  0  0  0  0  0  0  0
    3.4829  -10.5697   30.2091 N   0  0  0  0  0  0  0  0  0  0  0  0
   -0.3363   -6.1172   27.5628 C   0  0  0  0  0  0  0  0  0  0  0  0
    3.0331   -7.4400   27.6362 C   0  0  0  0  0  0  0  0  0  0  0  0
    5.4553   -8.5933   27.9644 C   0  0  0  0  0  0  0  0  0  0  0  0
   -2.3870  -12.8440   19.2512 C   0  0  0  0  0  0  0  0  0  0  0  0
    0.5331   -7.6964   16.2751 C   0  0  0  0  0  0  0  0  0  0  0  0
   -0.6740  -10.8737   18.0482 C   0  0  0  0  0  0  0  0  0  0  0  0
    5.6751  -10.5870   29.7637 O   0  0  0  0  0  0  0  0  0  0  0  0
    1.7612   -5.6483   26.7172 C   0  0  0  0  0  0  0  0  0  0  0  0
    0.2221   -9.8326   17.4055 C   0  0  0  0  0  0  0  0  0  0  0  0
    4.3850   -9.0730   28.6745 C   0  0  0  0  0  0  0  0  0  0  0  0
  1  7  4  0
  1 22  4  0
  2 17  4  0
  2 20  4  0
  2 28  4  0
  3  6  1  0
  3 19  1  0
  4 19  1  0
  4 26  1  0
  5 17  4  0
  5 18  4  0
  6 20  1  0
  6 26  1  0
  7 24  4  0
  8 15  4  0
  8 24  4  0
  9 14  4  0
  9 21  4  0
 10 12  4  0
 10 27  4  0
 11 12  4  0
 11 23  4  0
 13 23  4  0
 13 27  4  0
 14 20  4  0
 15 22  4  0
 16 18  4  0
 16 25  2  0
 16 28  4  0
 21 28  4  0
 24 27  1  0
M  END
$$$$

 Created by Python create_sdf_string function

 28 31  0  0  0  0  0  0  0  0999 V2000
   -1.0054  -13.0622   19.1198 C   0  0  0  0  0  0  0  0  0  0  0  0
    3.1478   -8.5360   28.5161 C   0  0  0  0  0  0  0  0  0  0  0  0
    0.5798   -7.1906   27.9330 C   0  0  0  0  0  0  0  0  0  0  0  0
    0.3978   -5.1561   26.6955 C   0  0  0  0  0  0  0  0  0  0  0  0
    2.3063  -10.0533   30.0125 C   0  0  0  0  0  0  0  0  0  0  0  0
    1.8591   -6.8254   27.4685 N   0  0  0  0  0  0  0  0  0  0  0  0
   -0.2167  -12.1055   18.5568 C   0  0  0  0  0  0  0  0  0  0  0  0
   -2.0661  -10.6994   18.1916 C   0  0  0  0  0  0  0  0  0  0  0  0
    5.2703   -7.5691   27.1123 C   0  0  0  0  0  0  0  0  0  0  0  0
    1.6204   -9.9887   17.2935 C   0  0  0  0  0  0  0  0  0  0  0  0
    1.8931   -7.9265   16.2047 C   0  0  0  0  0  0  0  0  0  0  0  0
    2.4396   -9.0801   16.7132 C   0  0  0  0  0  0  0  0  0  0  0  0
   -0.2575   -8.6234   16.8582 C   0  0  0  0  0  0  0  0  0  0  0  0
    4.0614   -7.0367   27.0106 N   0  0  0  0  0  0  0  0  0  0  0  0
   -2.9133  -11.6279   18.7578 C   0  0  0  0  0  0  0  0  0  0  0  0
    4.5688  -10.1291   29.5758 C   0  0  0  0  0  0  0  0  0  0  0  0
    2.1008   -9.0410   29.1852 N   0  0  0  0  0  0  0  0  0  0  0  0
    3.4829  -10.5697   30.2091 N   0  0  0  0  0  0  0  0  0  0  0  0
   -0.3363   -6.1172   27.5628 C   0  0  0  0  0  0  0  0  0  0  0  0
    3.0331   -7.4400   27.6362 C   0  0  0  0  0  0  0  0  0  0  0  0
    5.4553   -8.5933   27.9644 C   0  0  0  0  0  0  0  0  0  0  0  0
   -2.3870  -12.8440   19.2512 C   0  0  0  0  0  0  0  0  0  0  0  0
    0.5331   -7.6964   16.2751 C   0  0  0  0  0  0  0  0  0  0  0  0
   -0.6740  -10.8737   18.0482 C   0  0  0  0  0  0  0  0  0  0  0  0
    5.6751  -10.5870   29.7637 O   0  0  0  0  0  0  0  0  0  0  0  0
    1.7612   -5.6483   26.7172 C   0  0  0  0  0  0  0  0  0  0  0  0
    0.2221   -9.8326   17.4055 C   0  0  0  0  0  0  0  0  0  0  0  0
    4.3850   -9.0730   28.6745 C   0  0  0  0  0  0  0  0  0  0  0  0
  1  7  4  0
  1 22  4  0
  2 17  4  0
  2 20  4  0
  2 28  4  0
  3  6  1  0
  3 19  1  0
  4 19  1  0
  4 26  1  0
  5 17  4  0
  5 18  4  0
  6 20  1  0
  6 26  1  0
  7 24  4  0
  8 15  4  0
  8 24  4  0
  9 14  4  0
  9 21  4  0
 10 12  4  0
 10 27  4  0
 11 12  4  0
 11 23  4  0
 13 23  4  0
 13 27  4  0
 14 20  4  0
 15 22  4  0
 16 18  4  0
 16 25  2  0
 16 28  4  0
 21 28  4  0
 24 27  1  0
M  END
$$$$

 Created by Python create_sdf_string function

 28 31  0  0  0  0  0  0  0  0999 V2000
   -1.0054  -13.0622   19.1198 C   0  0  0  0  0  0  0  0  0  0  0  0
    3.1478   -8.5360   28.5161 C   0  0  0  0  0  0  0  0  0  0  0  0
    0.5798   -7.1906   27.9330 C   0  0  0  0  0  0  0  0  0  0  0  0
    0.3978   -5.1561   26.6955 C   0  0  0  0  0  0  0  0  0  0  0  0
    2.3063  -10.0533   30.0125 C   0  0  0  0  0  0  0  0  0  0  0  0
    1.8591   -6.8254   27.4685 N   0  0  0  0  0  0  0  0  0  0  0  0
   -0.2167  -12.1055   18.5568 C   0  0  0  0  0  0  0  0  0  0  0  0
   -2.0661  -10.6994   18.1916 C   0  0  0  0  0  0  0  0  0  0  0  0
    5.2703   -7.5691   27.1123 C   0  0  0  0  0  0  0  0  0  0  0  0
    1.6204   -9.9887   17.2935 C   0  0  0  0  0  0  0  0  0  0  0  0
    1.8931   -7.9265   16.2047 C   0  0  0  0  0  0  0  0  0  0  0  0
    2.4396   -9.0801   16.7132 C   0  0  0  0  0  0  0  0  0  0  0  0
   -0.2575   -8.6234   16.8582 C   0  0  0  0  0  0  0  0  0  0  0  0
    4.0614   -7.0367   27.0106 N   0  0  0  0  0  0  0  0  0  0  0  0
   -2.9133  -11.6279   18.7578 C   0  0  0  0  0  0  0  0  0  0  0  0
    4.5688  -10.1291   29.5758 C   0  0  0  0  0  0  0  0  0  0  0  0
    2.1008   -9.0410   29.1852 N   0  0  0  0  0  0  0  0  0  0  0  0
    3.4829  -10.5697   30.2091 N   0  0  0  0  0  0  0  0  0  0  0  0
   -0.3363   -6.1172   27.5628 C   0  0  0  0  0  0  0  0  0  0  0  0
    3.0331   -7.4400   27.6362 C   0  0  0  0  0  0  0  0  0  0  0  0
    5.4553   -8.5933   27.9644 C   0  0  0  0  0  0  0  0  0  0  0  0
   -2.3870  -12.8440   19.2512 C   0  0  0  0  0  0  0  0  0  0  0  0
    0.5331   -7.6964   16.2751 C   0  0  0  0  0  0  0  0  0  0  0  0
   -0.6740  -10.8737   18.0482 C   0  0  0  0  0  0  0  0  0  0  0  0
    5.6751  -10.5870   29.7637 O   0  0  0  0  0  0  0  0  0  0  0  0
    1.7612   -5.6483   26.7172 C   0  0  0  0  0  0  0  0  0  0  0  0
    0.2221   -9.8326   17.4055 C   0  0  0  0  0  0  0  0  0  0  0  0
    4.3850   -9.0730   28.6745 C   0  0  0  0  0  0  0  0  0  0  0  0
  1  7  4  0
  1 22  4  0
  2 17  4  0
  2 20  4  0
  2 28  4  0
  3  6  1  0
  3 19  1  0
  4 19  1  0
  4 26  1  0
  5 17  4  0
  5 18  4  0
  6 20  1  0
  6 26  1  0
  7 24  4  0
  8 15  4  0
  8 24  4  0
  9 14  4  0
  9 21  4  0
 10 12  4  0
 10 27  4  0
 11 12  4  0
 11 23  4  0
 13 23  4  0
 13 27  4  0
 14 20  4  0
 15 22  4  0
 16 18  4  0
 16 25  2  0
 16 28  4  0
 21 28  4  0
 24 27  1  0
M  END
$$$$

 Created by Python create_sdf_string function

 28 31  0  0  0  0  0  0  0  0999 V2000
   -1.0054  -13.0622   19.1198 C   0  0  0  0  0  0  0  0  0  0  0  0
    3.1478   -8.5360   28.5161 C   0  0  0  0  0  0  0  0  0  0  0  0
    0.5798   -7.1906   27.9330 C   0  0  0  0  0  0  0  0  0  0  0  0
    0.3978   -5.1561   26.6955 C   0  0  0  0  0  0  0  0  0  0  0  0
    2.3063  -10.0533   30.0125 C   0  0  0  0  0  0  0  0  0  0  0  0
    1.8591   -6.8254   27.4685 N   0  0  0  0  0  0  0  0  0  0  0  0
   -0.2167  -12.1055   18.5568 C   0  0  0  0  0  0  0  0  0  0  0  0
   -2.0661  -10.6994   18.1916 C   0  0  0  0  0  0  0  0  0  0  0  0
    5.2703   -7.5691   27.1123 C   0  0  0  0  0  0  0  0  0  0  0  0
    1.6204   -9.9887   17.2935 C   0  0  0  0  0  0  0  0  0  0  0  0
    1.8931   -7.9265   16.2047 C   0  0  0  0  0  0  0  0  0  0  0  0
    2.4396   -9.0801   16.7132 C   0  0  0  0  0  0  0  0  0  0  0  0
   -0.2575   -8.6234   16.8582 C   0  0  0  0  0  0  0  0  0  0  0  0
    4.0614   -7.0367   27.0106 N   0  0  0  0  0  0  0  0  0  0  0  0
   -2.9133  -11.6279   18.7578 C   0  0  0  0  0  0  0  0  0  0  0  0
    4.5688  -10.1291   29.5758 C   0  0  0  0  0  0  0  0  0  0  0  0
    2.1008   -9.0410   29.1852 N   0  0  0  0  0  0  0  0  0  0  0  0
    3.4829  -10.5697   30.2091 N   0  0  0  0  0  0  0  0  0  0  0  0
   -0.3363   -6.1172   27.5628 C   0  0  0  0  0  0  0  0  0  0  0  0
    3.0331   -7.4400   27.6362 C   0  0  0  0  0  0  0  0  0  0  0  0
    5.4553   -8.5933   27.9644 C   0  0  0  0  0  0  0  0  0  0  0  0
   -2.3870  -12.8440   19.2512 C   0  0  0  0  0  0  0  0  0  0  0  0
    0.5331   -7.6964   16.2751 C   0  0  0  0  0  0  0  0  0  0  0  0
   -0.6740  -10.8737   18.0482 C   0  0  0  0  0  0  0  0  0  0  0  0
    5.6751  -10.5870   29.7637 O   0  0  0  0  0  0  0  0  0  0  0  0
    1.7612   -5.6483   26.7172 C   0  0  0  0  0  0  0  0  0  0  0  0
    0.2221   -9.8326   17.4055 C   0  0  0  0  0  0  0  0  0  0  0  0
    4.3850   -9.0730   28.6745 C   0  0  0  0  0  0  0  0  0  0  0  0
  1  7  4  0
  1 22  4  0
  2 17  4  0
  2 20  4  0
  2 28  4  0
  3  6  1  0
  3 19  1  0
  4 19  1  0
  4 26  1  0
  5 17  4  0
  5 18  4  0
  6 20  1  0
  6 26  1  0
  7 24  4  0
  8 15  4  0
  8 24  4  0
  9 14  4  0
  9 21  4  0
 10 12  4  0
 10 27  4  0
 11 12  4  0
 11 23  4  0
 13 23  4  0
 13 27  4  0
 14 20  4  0
 15 22  4  0
 16 18  4  0
 16 25  2  0
 16 28  4  0
 21 28  4  0
 24 27  1  0
M  END
$$$$

 Created by Python create_sdf_string function

 28 31  0  0  0  0  0  0  0  0999 V2000
   -1.0054  -13.0622   19.1198 C   0  0  0  0  0  0  0  0  0  0  0  0
    3.1478   -8.5360   28.5161 C   0  0  0  0  0  0  0  0  0  0  0  0
    0.5798   -7.1906   27.9330 C   0  0  0  0  0  0  0  0  0  0  0  0
    0.3978   -5.1561   26.6955 C   0  0  0  0  0  0  0  0  0  0  0  0
    2.3063  -10.0533   30.0125 C   0  0  0  0  0  0  0  0  0  0  0  0
    1.8591   -6.8254   27.4685 N   0  0  0  0  0  0  0  0  0  0  0  0
   -0.2167  -12.1055   18.5568 C   0  0  0  0  0  0  0  0  0  0  0  0
   -2.0661  -10.6994   18.1916 C   0  0  0  0  0  0  0  0  0  0  0  0
    5.2703   -7.5691   27.1123 C   0  0  0  0  0  0  0  0  0  0  0  0
    1.6204   -9.9887   17.2935 C   0  0  0  0  0  0  0  0  0  0  0  0
    1.8931   -7.9265   16.2047 C   0  0  0  0  0  0  0  0  0  0  0  0
    2.4396   -9.0801   16.7132 C   0  0  0  0  0  0  0  0  0  0  0  0
   -0.2575   -8.6234   16.8582 C   0  0  0  0  0  0  0  0  0  0  0  0
    4.0614   -7.0367   27.0106 N   0  0  0  0  0  0  0  0  0  0  0  0
   -2.9133  -11.6279   18.7578 C   0  0  0  0  0  0  0  0  0  0  0  0
    4.5688  -10.1291   29.5758 C   0  0  0  0  0  0  0  0  0  0  0  0
    2.1008   -9.0410   29.1852 N   0  0  0  0  0  0  0  0  0  0  0  0
    3.4829  -10.5697   30.2091 N   0  0  0  0  0  0  0  0  0  0  0  0
   -0.3363   -6.1172   27.5628 C   0  0  0  0  0  0  0  0  0  0  0  0
    3.0331   -7.4400   27.6362 C   0  0  0  0  0  0  0  0  0  0  0  0
    5.4553   -8.5933   27.9644 C   0  0  0  0  0  0  0  0  0  0  0  0
   -2.3870  -12.8440   19.2512 C   0  0  0  0  0  0  0  0  0  0  0  0
    0.5331   -7.6964   16.2751 C   0  0  0  0  0  0  0  0  0  0  0  0
   -0.6740  -10.8737   18.0482 C   0  0  0  0  0  0  0  0  0  0  0  0
    5.6751  -10.5870   29.7637 O   0  0  0  0  0  0  0  0  0  0  0  0
    1.7612   -5.6483   26.7172 C   0  0  0  0  0  0  0  0  0  0  0  0
    0.2221   -9.8326   17.4055 C   0  0  0  0  0  0  0  0  0  0  0  0
    4.3850   -9.0730   28.6745 C   0  0  0  0  0  0  0  0  0  0  0  0
  1  7  4  0
  1 22  4  0
  2 17  4  0
  2 20  4  0
  2 28  4  0
  3  6  1  0
  3 19  1  0
  4 19  1  0
  4 26  1  0
  5 17  4  0
  5 18  4  0
  6 20  1  0
  6 26  1  0
  7 24  4  0
  8 15  4  0
  8 24  4  0
  9 14  4  0
  9 21  4  0
 10 12  4  0
 10 27  4  0
 11 12  4  0
 11 23  4  0
 13 23  4  0
 13 27  4  0
 14 20  4  0
 15 22  4  0
 16 18  4  0
 16 25  2  0
 16 28  4  0
 21 28  4  0
 24 27  1  0
M  END
$$$$

 Created by Python create_sdf_string function

 28 31  0  0  0  0  0  0  0  0999 V2000
   -1.0054  -13.0622   19.1198 C   0  0  0  0  0  0  0  0  0  0  0  0
    3.1478   -8.5360   28.5161 C   0  0  0  0  0  0  0  0  0  0  0  0
    0.5798   -7.1906   27.9330 C   0  0  0  0  0  0  0  0  0  0  0  0
    0.3978   -5.1561   26.6955 C   0  0  0  0  0  0  0  0  0  0  0  0
    2.3063  -10.0533   30.0125 C   0  0  0  0  0  0  0  0  0  0  0  0
    1.8591   -6.8254   27.4685 N   0  0  0  0  0  0  0  0  0  0  0  0
   -0.2167  -12.1055   18.5568 C   0  0  0  0  0  0  0  0  0  0  0  0
   -2.0661  -10.6994   18.1916 C   0  0  0  0  0  0  0  0  0  0  0  0
    5.2703   -7.5691   27.1123 C   0  0  0  0  0  0  0  0  0  0  0  0
    1.6204   -9.9887   17.2935 C   0  0  0  0  0  0  0  0  0  0  0  0
    1.8931   -7.9265   16.2047 C   0  0  0  0  0  0  0  0  0  0  0  0
    2.4396   -9.0801   16.7132 C   0  0  0  0  0  0  0  0  0  0  0  0
   -0.2575   -8.6234   16.8582 C   0  0  0  0  0  0  0  0  0  0  0  0
    4.0614   -7.0367   27.0106 N   0  0  0  0  0  0  0  0  0  0  0  0
   -2.9133  -11.6279   18.7578 C   0  0  0  0  0  0  0  0  0  0  0  0
    4.5688  -10.1291   29.5758 C   0  0  0  0  0  0  0  0  0  0  0  0
    2.1008   -9.0410   29.1852 N   0  0  0  0  0  0  0  0  0  0  0  0
    3.4829  -10.5697   30.2091 N   0  0  0  0  0  0  0  0  0  0  0  0
   -0.3363   -6.1172   27.5628 C   0  0  0  0  0  0  0  0  0  0  0  0
    3.0331   -7.4400   27.6362 C   0  0  0  0  0  0  0  0  0  0  0  0
    5.4553   -8.5933   27.9644 C   0  0  0  0  0  0  0  0  0  0  0  0
   -2.3870  -12.8440   19.2512 C   0  0  0  0  0  0  0  0  0  0  0  0
    0.5331   -7.6964   16.2751 C   0  0  0  0  0  0  0  0  0  0  0  0
   -0.6740  -10.8737   18.0482 C   0  0  0  0  0  0  0  0  0  0  0  0
    5.6751  -10.5870   29.7637 O   0  0  0  0  0  0  0  0  0  0  0  0
    1.7612   -5.6483   26.7172 C   0  0  0  0  0  0  0  0  0  0  0  0
    0.2221   -9.8326   17.4055 C   0  0  0  0  0  0  0  0  0  0  0  0
    4.3850   -9.0730   28.6745 C   0  0  0  0  0  0  0  0  0  0  0  0
  1  7  4  0
  1 22  4  0
  2 17  4  0
  2 20  4  0
  2 28  4  0
  3  6  1  0
  3 19  1  0
  4 19  1  0
  4 26  1  0
  5 17  4  0
  5 18  4  0
  6 20  1  0
  6 26  1  0
  7 24  4  0
  8 15  4  0
  8 24  4  0
  9 14  4  0
  9 21  4  0
 10 12  4  0
 10 27  4  0
 11 12  4  0
 11 23  4  0
 13 23  4  0
 13 27  4  0
 14 20  4  0
 15 22  4  0
 16 18  4  0
 16 25  2  0
 16 28  4  0
 21 28  4  0
 24 27  1  0
M  END
$$$$

 Created by Python create_sdf_string function

 28 31  0  0  0  0  0  0  0  0999 V2000
   -1.0054  -13.0622   19.1198 C   0  0  0  0  0  0  0  0  0  0  0  0
    3.1478   -8.5360   28.5161 C   0  0  0  0  0  0  0  0  0  0  0  0
    0.5798   -7.1906   27.9330 C   0  0  0  0  0  0  0  0  0  0  0  0
    0.3978   -5.1561   26.6955 C   0  0  0  0  0  0  0  0  0  0  0  0
    2.3063  -10.0533   30.0125 C   0  0  0  0  0  0  0  0  0  0  0  0
    1.8591   -6.8254   27.4685 N   0  0  0  0  0  0  0  0  0  0  0  0
   -0.2167  -12.1055   18.5568 C   0  0  0  0  0  0  0  0  0  0  0  0
   -2.0661  -10.6994   18.1916 C   0  0  0  0  0  0  0  0  0  0  0  0
    5.2703   -7.5691   27.1123 C   0  0  0  0  0  0  0  0  0  0  0  0
    1.6204   -9.9887   17.2935 C   0  0  0  0  0  0  0  0  0  0  0  0
    1.8931   -7.9265   16.2047 C   0  0  0  0  0  0  0  0  0  0  0  0
    2.4396   -9.0801   16.7132 C   0  0  0  0  0  0  0  0  0  0  0  0
   -0.2575   -8.6234   16.8582 C   0  0  0  0  0  0  0  0  0  0  0  0
    4.0614   -7.0367   27.0106 N   0  0  0  0  0  0  0  0  0  0  0  0
   -2.9133  -11.6279   18.7578 C   0  0  0  0  0  0  0  0  0  0  0  0
    4.5688  -10.1291   29.5758 C   0  0  0  0  0  0  0  0  0  0  0  0
    2.1008   -9.0410   29.1852 N   0  0  0  0  0  0  0  0  0  0  0  0
    3.4829  -10.5697   30.2091 N   0  0  0  0  0  0  0  0  0  0  0  0
   -0.3363   -6.1172   27.5628 C   0  0  0  0  0  0  0  0  0  0  0  0
    3.0331   -7.4400   27.6362 C   0  0  0  0  0  0  0  0  0  0  0  0
    5.4553   -8.5933   27.9644 C   0  0  0  0  0  0  0  0  0  0  0  0
   -2.3870  -12.8440   19.2512 C   0  0  0  0  0  0  0  0  0  0  0  0
    0.5331   -7.6964   16.2751 C   0  0  0  0  0  0  0  0  0  0  0  0
   -0.6740  -10.8737   18.0482 C   0  0  0  0  0  0  0  0  0  0  0  0
    5.6751  -10.5870   29.7637 O   0  0  0  0  0  0  0  0  0  0  0  0
    1.7612   -5.6483   26.7172 C   0  0  0  0  0  0  0  0  0  0  0  0
    0.2221   -9.8326   17.4055 C   0  0  0  0  0  0  0  0  0  0  0  0
    4.3850   -9.0730   28.6745 C   0  0  0  0  0  0  0  0  0  0  0  0
  1  7  4  0
  1 22  4  0
  2 17  4  0
  2 20  4  0
  2 28  4  0
  3  6  1  0
  3 19  1  0
  4 19  1  0
  4 26  1  0
  5 17  4  0
  5 18  4  0
  6 20  1  0
  6 26  1  0
  7 24  4  0
  8 15  4  0
  8 24  4  0
  9 14  4  0
  9 21  4  0
 10 12  4  0
 10 27  4  0
 11 12  4  0
 11 23  4  0
 13 23  4  0
 13 27  4  0
 14 20  4  0
 15 22  4  0
 16 18  4  0
 16 25  2  0
 16 28  4  0
 21 28  4  0
 24 27  1  0
M  END
$$$$

 Created by Python create_sdf_string function

 28 31  0  0  0  0  0  0  0  0999 V2000
   -1.0054  -13.0622   19.1198 C   0  0  0  0  0  0  0  0  0  0  0  0
    3.1478   -8.5360   28.5161 C   0  0  0  0  0  0  0  0  0  0  0  0
    0.5798   -7.1906   27.9330 C   0  0  0  0  0  0  0  0  0  0  0  0
    0.3978   -5.1561   26.6955 C   0  0  0  0  0  0  0  0  0  0  0  0
    2.3063  -10.0533   30.0125 C   0  0  0  0  0  0  0  0  0  0  0  0
    1.8591   -6.8254   27.4685 N   0  0  0  0  0  0  0  0  0  0  0  0
   -0.2167  -12.1055   18.5568 C   0  0  0  0  0  0  0  0  0  0  0  0
   -2.0661  -10.6994   18.1916 C   0  0  0  0  0  0  0  0  0  0  0  0
    5.2703   -7.5691   27.1123 C   0  0  0  0  0  0  0  0  0  0  0  0
    1.6204   -9.9887   17.2935 C   0  0  0  0  0  0  0  0  0  0  0  0
    1.8931   -7.9265   16.2047 C   0  0  0  0  0  0  0  0  0  0  0  0
    2.4396   -9.0801   16.7132 C   0  0  0  0  0  0  0  0  0  0  0  0
   -0.2575   -8.6234   16.8582 C   0  0  0  0  0  0  0  0  0  0  0  0
    4.0614   -7.0367   27.0106 N   0  0  0  0  0  0  0  0  0  0  0  0
   -2.9133  -11.6279   18.7578 C   0  0  0  0  0  0  0  0  0  0  0  0
    4.5688  -10.1291   29.5758 C   0  0  0  0  0  0  0  0  0  0  0  0
    2.1008   -9.0410   29.1852 N   0  0  0  0  0  0  0  0  0  0  0  0
    3.4829  -10.5697   30.2091 N   0  0  0  0  0  0  0  0  0  0  0  0
   -0.3363   -6.1172   27.5628 C   0  0  0  0  0  0  0  0  0  0  0  0
    3.0331   -7.4400   27.6362 C   0  0  0  0  0  0  0  0  0  0  0  0
    5.4553   -8.5933   27.9644 C   0  0  0  0  0  0  0  0  0  0  0  0
   -2.3870  -12.8440   19.2512 C   0  0  0  0  0  0  0  0  0  0  0  0
    0.5331   -7.6964   16.2751 C   0  0  0  0  0  0  0  0  0  0  0  0
   -0.6740  -10.8737   18.0482 C   0  0  0  0  0  0  0  0  0  0  0  0
    5.6751  -10.5870   29.7637 O   0  0  0  0  0  0  0  0  0  0  0  0
    1.7612   -5.6483   26.7172 C   0  0  0  0  0  0  0  0  0  0  0  0
    0.2221   -9.8326   17.4055 C   0  0  0  0  0  0  0  0  0  0  0  0
    4.3850   -9.0730   28.6745 C   0  0  0  0  0  0  0  0  0  0  0  0
  1  7  4  0
  1 22  4  0
  2 17  4  0
  2 20  4  0
  2 28  4  0
  3  6  1  0
  3 19  1  0
  4 19  1  0
  4 26  1  0
  5 17  4  0
  5 18  4  0
  6 20  1  0
  6 26  1  0
  7 24  4  0
  8 15  4  0
  8 24  4  0
  9 14  4  0
  9 21  4  0
 10 12  4  0
 10 27  4  0
 11 12  4  0
 11 23  4  0
 13 23  4  0
 13 27  4  0
 14 20  4  0
 15 22  4  0
 16 18  4  0
 16 25  2  0
 16 28  4  0
 21 28  4  0
 24 27  1  0
M  END
$$$$

 Created by Python create_sdf_string function

 28 31  0  0  0  0  0  0  0  0999 V2000
   -1.0054  -13.0622   19.1198 C   0  0  0  0  0  0  0  0  0  0  0  0
    3.1478   -8.5360   28.5161 C   0  0  0  0  0  0  0  0  0  0  0  0
    0.5798   -7.1906   27.9330 C   0  0  0  0  0  0  0  0  0  0  0  0
    0.3978   -5.1561   26.6955 C   0  0  0  0  0  0  0  0  0  0  0  0
    2.3063  -10.0533   30.0125 C   0  0  0  0  0  0  0  0  0  0  0  0
    1.8591   -6.8254   27.4685 N   0  0  0  0  0  0  0  0  0  0  0  0
   -0.2167  -12.1055   18.5568 C   0  0  0  0  0  0  0  0  0  0  0  0
   -2.0661  -10.6994   18.1916 C   0  0  0  0  0  0  0  0  0  0  0  0
    5.2703   -7.5691   27.1123 C   0  0  0  0  0  0  0  0  0  0  0  0
    1.6204   -9.9887   17.2935 C   0  0  0  0  0  0  0  0  0  0  0  0
    1.8931   -7.9265   16.2047 C   0  0  0  0  0  0  0  0  0  0  0  0
    2.4396   -9.0801   16.7132 C   0  0  0  0  0  0  0  0  0  0  0  0
   -0.2575   -8.6234   16.8582 C   0  0  0  0  0  0  0  0  0  0  0  0
    4.0614   -7.0367   27.0106 N   0  0  0  0  0  0  0  0  0  0  0  0
   -2.9133  -11.6279   18.7578 C   0  0  0  0  0  0  0  0  0  0  0  0
    4.5688  -10.1291   29.5758 C   0  0  0  0  0  0  0  0  0  0  0  0
    2.1008   -9.0410   29.1852 N   0  0  0  0  0  0  0  0  0  0  0  0
    3.4829  -10.5697   30.2091 N   0  0  0  0  0  0  0  0  0  0  0  0
   -0.3363   -6.1172   27.5628 C   0  0  0  0  0  0  0  0  0  0  0  0
    3.0331   -7.4400   27.6362 C   0  0  0  0  0  0  0  0  0  0  0  0
    5.4553   -8.5933   27.9644 C   0  0  0  0  0  0  0  0  0  0  0  0
   -2.3870  -12.8440   19.2512 C   0  0  0  0  0  0  0  0  0  0  0  0
    0.5331   -7.6964   16.2751 C   0  0  0  0  0  0  0  0  0  0  0  0
   -0.6740  -10.8737   18.0482 C   0  0  0  0  0  0  0  0  0  0  0  0
    5.6751  -10.5870   29.7637 O   0  0  0  0  0  0  0  0  0  0  0  0
    1.7612   -5.6483   26.7172 C   0  0  0  0  0  0  0  0  0  0  0  0
    0.2221   -9.8326   17.4055 C   0  0  0  0  0  0  0  0  0  0  0  0
    4.3850   -9.0730   28.6745 C   0  0  0  0  0  0  0  0  0  0  0  0
  1  7  4  0
  1 22  4  0
  2 17  4  0
  2 20  4  0
  2 28  4  0
  3  6  1  0
  3 19  1  0
  4 19  1  0
  4 26  1  0
  5 17  4  0
  5 18  4  0
  6 20  1  0
  6 26  1  0
  7 24  4  0
  8 15  4  0
  8 24  4  0
  9 14  4  0
  9 21  4  0
 10 12  4  0
 10 27  4  0
 11 12  4  0
 11 23  4  0
 13 23  4  0
 13 27  4  0
 14 20  4  0
 15 22  4  0
 16 18  4  0
 16 25  2  0
 16 28  4  0
 21 28  4  0
 24 27  1  0
M  END
$$$$

 Created by Python create_sdf_string function

 28 31  0  0  0  0  0  0  0  0999 V2000
   -1.0054  -13.0622   19.1198 C   0  0  0  0  0  0  0  0  0  0  0  0
    3.1478   -8.5360   28.5161 C   0  0  0  0  0  0  0  0  0  0  0  0
    0.5798   -7.1906   27.9330 C   0  0  0  0  0  0  0  0  0  0  0  0
    0.3978   -5.1561   26.6955 C   0  0  0  0  0  0  0  0  0  0  0  0
    2.3063  -10.0533   30.0125 C   0  0  0  0  0  0  0  0  0  0  0  0
    1.8591   -6.8254   27.4685 N   0  0  0  0  0  0  0  0  0  0  0  0
   -0.2167  -12.1055   18.5568 C   0  0  0  0  0  0  0  0  0  0  0  0
   -2.0661  -10.6994   18.1916 C   0  0  0  0  0  0  0  0  0  0  0  0
    5.2703   -7.5691   27.1123 C   0  0  0  0  0  0  0  0  0  0  0  0
    1.6204   -9.9887   17.2935 C   0  0  0  0  0  0  0  0  0  0  0  0
    1.8931   -7.9265   16.2047 C   0  0  0  0  0  0  0  0  0  0  0  0
    2.4396   -9.0801   16.7132 C   0  0  0  0  0  0  0  0  0  0  0  0
   -0.2575   -8.6234   16.8582 C   0  0  0  0  0  0  0  0  0  0  0  0
    4.0614   -7.0367   27.0106 N   0  0  0  0  0  0  0  0  0  0  0  0
   -2.9133  -11.6279   18.7578 C   0  0  0  0  0  0  0  0  0  0  0  0
    4.5688  -10.1291   29.5758 C   0  0  0  0  0  0  0  0  0  0  0  0
    2.1008   -9.0410   29.1852 N   0  0  0  0  0  0  0  0  0  0  0  0
    3.4829  -10.5697   30.2091 N   0  0  0  0  0  0  0  0  0  0  0  0
   -0.3363   -6.1172   27.5628 C   0  0  0  0  0  0  0  0  0  0  0  0
    3.0331   -7.4400   27.6362 C   0  0  0  0  0  0  0  0  0  0  0  0
    5.4553   -8.5933   27.9644 C   0  0  0  0  0  0  0  0  0  0  0  0
   -2.3870  -12.8440   19.2512 C   0  0  0  0  0  0  0  0  0  0  0  0
    0.5331   -7.6964   16.2751 C   0  0  0  0  0  0  0  0  0  0  0  0
   -0.6740  -10.8737   18.0482 C   0  0  0  0  0  0  0  0  0  0  0  0
    5.6751  -10.5870   29.7637 O   0  0  0  0  0  0  0  0  0  0  0  0
    1.7612   -5.6483   26.7172 C   0  0  0  0  0  0  0  0  0  0  0  0
    0.2221   -9.8326   17.4055 C   0  0  0  0  0  0  0  0  0  0  0  0
    4.3850   -9.0730   28.6745 C   0  0  0  0  0  0  0  0  0  0  0  0
  1  7  4  0
  1 22  4  0
  2 17  4  0
  2 20  4  0
  2 28  4  0
  3  6  1  0
  3 19  1  0
  4 19  1  0
  4 26  1  0
  5 17  4  0
  5 18  4  0
  6 20  1  0
  6 26  1  0
  7 24  4  0
  8 15  4  0
  8 24  4  0
  9 14  4  0
  9 21  4  0
 10 12  4  0
 10 27  4  0
 11 12  4  0
 11 23  4  0
 13 23  4  0
 13 27  4  0
 14 20  4  0
 15 22  4  0
 16 18  4  0
 16 25  2  0
 16 28  4  0
 21 28  4  0
 24 27  1  0
M  END
$$$$

 Created by Python create_sdf_string function

 28 31  0  0  0  0  0  0  0  0999 V2000
   -1.0054  -13.0622   19.1198 C   0  0  0  0  0  0  0  0  0  0  0  0
    3.1478   -8.5360   28.5161 C   0  0  0  0  0  0  0  0  0  0  0  0
    0.5798   -7.1906   27.9330 C   0  0  0  0  0  0  0  0  0  0  0  0
    0.3978   -5.1561   26.6955 C   0  0  0  0  0  0  0  0  0  0  0  0
    2.3063  -10.0533   30.0125 C   0  0  0  0  0  0  0  0  0  0  0  0
    1.8591   -6.8254   27.4685 N   0  0  0  0  0  0  0  0  0  0  0  0
   -0.2167  -12.1055   18.5568 C   0  0  0  0  0  0  0  0  0  0  0  0
   -2.0661  -10.6994   18.1916 C   0  0  0  0  0  0  0  0  0  0  0  0
    5.2703   -7.5691   27.1123 C   0  0  0  0  0  0  0  0  0  0  0  0
    1.6204   -9.9887   17.2935 C   0  0  0  0  0  0  0  0  0  0  0  0
    1.8931   -7.9265   16.2047 C   0  0  0  0  0  0  0  0  0  0  0  0
    2.4396   -9.0801   16.7132 C   0  0  0  0  0  0  0  0  0  0  0  0
   -0.2575   -8.6234   16.8582 C   0  0  0  0  0  0  0  0  0  0  0  0
    4.0614   -7.0367   27.0106 N   0  0  0  0  0  0  0  0  0  0  0  0
   -2.9133  -11.6279   18.7578 C   0  0  0  0  0  0  0  0  0  0  0  0
    4.5688  -10.1291   29.5758 C   0  0  0  0  0  0  0  0  0  0  0  0
    2.1008   -9.0410   29.1852 N   0  0  0  0  0  0  0  0  0  0  0  0
    3.4829  -10.5697   30.2091 N   0  0  0  0  0  0  0  0  0  0  0  0
   -0.3363   -6.1172   27.5628 C   0  0  0  0  0  0  0  0  0  0  0  0
    3.0331   -7.4400   27.6362 C   0  0  0  0  0  0  0  0  0  0  0  0
    5.4553   -8.5933   27.9644 C   0  0  0  0  0  0  0  0  0  0  0  0
   -2.3870  -12.8440   19.2512 C   0  0  0  0  0  0  0  0  0  0  0  0
    0.5331   -7.6964   16.2751 C   0  0  0  0  0  0  0  0  0  0  0  0
   -0.6740  -10.8737   18.0482 C   0  0  0  0  0  0  0  0  0  0  0  0
    5.6751  -10.5870   29.7637 O   0  0  0  0  0  0  0  0  0  0  0  0
    1.7612   -5.6483   26.7172 C   0  0  0  0  0  0  0  0  0  0  0  0
    0.2221   -9.8326   17.4055 C   0  0  0  0  0  0  0  0  0  0  0  0
    4.3850   -9.0730   28.6745 C   0  0  0  0  0  0  0  0  0  0  0  0
  1  7  4  0
  1 22  4  0
  2 17  4  0
  2 20  4  0
  2 28  4  0
  3  6  1  0
  3 19  1  0
  4 19  1  0
  4 26  1  0
  5 17  4  0
  5 18  4  0
  6 20  1  0
  6 26  1  0
  7 24  4  0
  8 15  4  0
  8 24  4  0
  9 14  4  0
  9 21  4  0
 10 12  4  0
 10 27  4  0
 11 12  4  0
 11 23  4  0
 13 23  4  0
 13 27  4  0
 14 20  4  0
 15 22  4  0
 16 18  4  0
 16 25  2  0
 16 28  4  0
 21 28  4  0
 24 27  1  0
M  END
$$$$

 Created by Python create_sdf_string function

 28 31  0  0  0  0  0  0  0  0999 V2000
   -1.0054  -13.0622   19.1198 C   0  0  0  0  0  0  0  0  0  0  0  0
    3.1478   -8.5360   28.5161 C   0  0  0  0  0  0  0  0  0  0  0  0
    0.5798   -7.1906   27.9330 C   0  0  0  0  0  0  0  0  0  0  0  0
    0.3978   -5.1561   26.6955 C   0  0  0  0  0  0  0  0  0  0  0  0
    2.3063  -10.0533   30.0125 C   0  0  0  0  0  0  0  0  0  0  0  0
    1.8591   -6.8254   27.4685 N   0  0  0  0  0  0  0  0  0  0  0  0
   -0.2167  -12.1055   18.5568 C   0  0  0  0  0  0  0  0  0  0  0  0
   -2.0661  -10.6994   18.1916 C   0  0  0  0  0  0  0  0  0  0  0  0
    5.2703   -7.5691   27.1123 C   0  0  0  0  0  0  0  0  0  0  0  0
    1.6204   -9.9887   17.2935 C   0  0  0  0  0  0  0  0  0  0  0  0
    1.8931   -7.9265   16.2047 C   0  0  0  0  0  0  0  0  0  0  0  0
    2.4396   -9.0801   16.7132 C   0  0  0  0  0  0  0  0  0  0  0  0
   -0.2575   -8.6234   16.8582 C   0  0  0  0  0  0  0  0  0  0  0  0
    4.0614   -7.0367   27.0106 N   0  0  0  0  0  0  0  0  0  0  0  0
   -2.9133  -11.6279   18.7578 C   0  0  0  0  0  0  0  0  0  0  0  0
    4.5688  -10.1291   29.5758 C   0  0  0  0  0  0  0  0  0  0  0  0
    2.1008   -9.0410   29.1852 N   0  0  0  0  0  0  0  0  0  0  0  0
    3.4829  -10.5697   30.2091 N   0  0  0  0  0  0  0  0  0  0  0  0
   -0.3363   -6.1172   27.5628 C   0  0  0  0  0  0  0  0  0  0  0  0
    3.0331   -7.4400   27.6362 C   0  0  0  0  0  0  0  0  0  0  0  0
    5.4553   -8.5933   27.9644 C   0  0  0  0  0  0  0  0  0  0  0  0
   -2.3870  -12.8440   19.2512 C   0  0  0  0  0  0  0  0  0  0  0  0
    0.5331   -7.6964   16.2751 C   0  0  0  0  0  0  0  0  0  0  0  0
   -0.6740  -10.8737   18.0482 C   0  0  0  0  0  0  0  0  0  0  0  0
    5.6751  -10.5870   29.7637 O   0  0  0  0  0  0  0  0  0  0  0  0
    1.7612   -5.6483   26.7172 C   0  0  0  0  0  0  0  0  0  0  0  0
    0.2221   -9.8326   17.4055 C   0  0  0  0  0  0  0  0  0  0  0  0
    4.3850   -9.0730   28.6745 C   0  0  0  0  0  0  0  0  0  0  0  0
  1  7  4  0
  1 22  4  0
  2 17  4  0
  2 20  4  0
  2 28  4  0
  3  6  1  0
  3 19  1  0
  4 19  1  0
  4 26  1  0
  5 17  4  0
  5 18  4  0
  6 20  1  0
  6 26  1  0
  7 24  4  0
  8 15  4  0
  8 24  4  0
  9 14  4  0
  9 21  4  0
 10 12  4  0
 10 27  4  0
 11 12  4  0
 11 23  4  0
 13 23  4  0
 13 27  4  0
 14 20  4  0
 15 22  4  0
 16 18  4  0
 16 25  2  0
 16 28  4  0
 21 28  4  0
 24 27  1  0
M  END
$$$$

 Created by Python create_sdf_string function

 28 31  0  0  0  0  0  0  0  0999 V2000
   -1.0054  -13.0622   19.1198 C   0  0  0  0  0  0  0  0  0  0  0  0
    3.1478   -8.5360   28.5161 C   0  0  0  0  0  0  0  0  0  0  0  0
    0.5798   -7.1906   27.9330 C   0  0  0  0  0  0  0  0  0  0  0  0
    0.3978   -5.1561   26.6955 C   0  0  0  0  0  0  0  0  0  0  0  0
    2.3063  -10.0533   30.0125 C   0  0  0  0  0  0  0  0  0  0  0  0
    1.8591   -6.8254   27.4685 N   0  0  0  0  0  0  0  0  0  0  0  0
   -0.2167  -12.1055   18.5568 C   0  0  0  0  0  0  0  0  0  0  0  0
   -2.0661  -10.6994   18.1916 C   0  0  0  0  0  0  0  0  0  0  0  0
    5.2703   -7.5691   27.1123 C   0  0  0  0  0  0  0  0  0  0  0  0
    1.6204   -9.9887   17.2935 C   0  0  0  0  0  0  0  0  0  0  0  0
    1.8931   -7.9265   16.2047 C   0  0  0  0  0  0  0  0  0  0  0  0
    2.4396   -9.0801   16.7132 C   0  0  0  0  0  0  0  0  0  0  0  0
   -0.2575   -8.6234   16.8582 C   0  0  0  0  0  0  0  0  0  0  0  0
    4.0614   -7.0367   27.0106 N   0  0  0  0  0  0  0  0  0  0  0  0
   -2.9133  -11.6279   18.7578 C   0  0  0  0  0  0  0  0  0  0  0  0
    4.5688  -10.1291   29.5758 C   0  0  0  0  0  0  0  0  0  0  0  0
    2.1008   -9.0410   29.1852 N   0  0  0  0  0  0  0  0  0  0  0  0
    3.4829  -10.5697   30.2091 N   0  0  0  0  0  0  0  0  0  0  0  0
   -0.3363   -6.1172   27.5628 C   0  0  0  0  0  0  0  0  0  0  0  0
    3.0331   -7.4400   27.6362 C   0  0  0  0  0  0  0  0  0  0  0  0
    5.4553   -8.5933   27.9644 C   0  0  0  0  0  0  0  0  0  0  0  0
   -2.3870  -12.8440   19.2512 C   0  0  0  0  0  0  0  0  0  0  0  0
    0.5331   -7.6964   16.2751 C   0  0  0  0  0  0  0  0  0  0  0  0
   -0.6740  -10.8737   18.0482 C   0  0  0  0  0  0  0  0  0  0  0  0
    5.6751  -10.5870   29.7637 O   0  0  0  0  0  0  0  0  0  0  0  0
    1.7612   -5.6483   26.7172 C   0  0  0  0  0  0  0  0  0  0  0  0
    0.2221   -9.8326   17.4055 C   0  0  0  0  0  0  0  0  0  0  0  0
    4.3850   -9.0730   28.6745 C   0  0  0  0  0  0  0  0  0  0  0  0
  1  7  4  0
  1 22  4  0
  2 17  4  0
  2 20  4  0
  2 28  4  0
  3  6  1  0
  3 19  1  0
  4 19  1  0
  4 26  1  0
  5 17  4  0
  5 18  4  0
  6 20  1  0
  6 26  1  0
  7 24  4  0
  8 15  4  0
  8 24  4  0
  9 14  4  0
  9 21  4  0
 10 12  4  0
 10 27  4  0
 11 12  4  0
 11 23  4  0
 13 23  4  0
 13 27  4  0
 14 20  4  0
 15 22  4  0
 16 18  4  0
 16 25  2  0
 16 28  4  0
 21 28  4  0
 24 27  1  0
M  END
$$$$

 Created by Python create_sdf_string function

 28 31  0  0  0  0  0  0  0  0999 V2000
   -1.0054  -13.0622   19.1198 C   0  0  0  0  0  0  0  0  0  0  0  0
    3.1478   -8.5360   28.5161 C   0  0  0  0  0  0  0  0  0  0  0  0
    0.5798   -7.1906   27.9330 C   0  0  0  0  0  0  0  0  0  0  0  0
    0.3978   -5.1561   26.6955 C   0  0  0  0  0  0  0  0  0  0  0  0
    2.3063  -10.0533   30.0125 C   0  0  0  0  0  0  0  0  0  0  0  0
    1.8591   -6.8254   27.4685 N   0  0  0  0  0  0  0  0  0  0  0  0
   -0.2167  -12.1055   18.5568 C   0  0  0  0  0  0  0  0  0  0  0  0
   -2.0661  -10.6994   18.1916 C   0  0  0  0  0  0  0  0  0  0  0  0
    5.2703   -7.5691   27.1123 C   0  0  0  0  0  0  0  0  0  0  0  0
    1.6204   -9.9887   17.2935 C   0  0  0  0  0  0  0  0  0  0  0  0
    1.8931   -7.9265   16.2047 C   0  0  0  0  0  0  0  0  0  0  0  0
    2.4396   -9.0801   16.7132 C   0  0  0  0  0  0  0  0  0  0  0  0
   -0.2575   -8.6234   16.8582 C   0  0  0  0  0  0  0  0  0  0  0  0
    4.0614   -7.0367   27.0106 N   0  0  0  0  0  0  0  0  0  0  0  0
   -2.9133  -11.6279   18.7578 C   0  0  0  0  0  0  0  0  0  0  0  0
    4.5688  -10.1291   29.5758 C   0  0  0  0  0  0  0  0  0  0  0  0
    2.1008   -9.0410   29.1852 N   0  0  0  0  0  0  0  0  0  0  0  0
    3.4829  -10.5697   30.2091 N   0  0  0  0  0  0  0  0  0  0  0  0
   -0.3363   -6.1172   27.5628 C   0  0  0  0  0  0  0  0  0  0  0  0
    3.0331   -7.4400   27.6362 C   0  0  0  0  0  0  0  0  0  0  0  0
    5.4553   -8.5933   27.9644 C   0  0  0  0  0  0  0  0  0  0  0  0
   -2.3870  -12.8440   19.2512 C   0  0  0  0  0  0  0  0  0  0  0  0
    0.5331   -7.6964   16.2751 C   0  0  0  0  0  0  0  0  0  0  0  0
   -0.6740  -10.8737   18.0482 C   0  0  0  0  0  0  0  0  0  0  0  0
    5.6751  -10.5870   29.7637 O   0  0  0  0  0  0  0  0  0  0  0  0
    1.7612   -5.6483   26.7172 C   0  0  0  0  0  0  0  0  0  0  0  0
    0.2221   -9.8326   17.4055 C   0  0  0  0  0  0  0  0  0  0  0  0
    4.3850   -9.0730   28.6745 C   0  0  0  0  0  0  0  0  0  0  0  0
  1  7  4  0
  1 22  4  0
  2 17  4  0
  2 20  4  0
  2 28  4  0
  3  6  1  0
  3 19  1  0
  4 19  1  0
  4 26  1  0
  5 17  4  0
  5 18  4  0
  6 20  1  0
  6 26  1  0
  7 24  4  0
  8 15  4  0
  8 24  4  0
  9 14  4  0
  9 21  4  0
 10 12  4  0
 10 27  4  0
 11 12  4  0
 11 23  4  0
 13 23  4  0
 13 27  4  0
 14 20  4  0
 15 22  4  0
 16 18  4  0
 16 25  2  0
 16 28  4  0
 21 28  4  0
 24 27  1  0
M  END
$$$$

 Created by Python create_sdf_string function

 28 31  0  0  0  0  0  0  0  0999 V2000
   -1.0054  -13.0622   19.1198 C   0  0  0  0  0  0  0  0  0  0  0  0
    3.1478   -8.5360   28.5161 C   0  0  0  0  0  0  0  0  0  0  0  0
    0.5798   -7.1906   27.9330 C   0  0  0  0  0  0  0  0  0  0  0  0
    0.3978   -5.1561   26.6955 C   0  0  0  0  0  0  0  0  0  0  0  0
    2.3063  -10.0533   30.0125 C   0  0  0  0  0  0  0  0  0  0  0  0
    1.8591   -6.8254   27.4685 N   0  0  0  0  0  0  0  0  0  0  0  0
   -0.2167  -12.1055   18.5568 C   0  0  0  0  0  0  0  0  0  0  0  0
   -2.0661  -10.6994   18.1916 C   0  0  0  0  0  0  0  0  0  0  0  0
    5.2703   -7.5691   27.1123 C   0  0  0  0  0  0  0  0  0  0  0  0
    1.6204   -9.9887   17.2935 C   0  0  0  0  0  0  0  0  0  0  0  0
    1.8931   -7.9265   16.2047 C   0  0  0  0  0  0  0  0  0  0  0  0
    2.4396   -9.0801   16.7132 C   0  0  0  0  0  0  0  0  0  0  0  0
   -0.2575   -8.6234   16.8582 C   0  0  0  0  0  0  0  0  0  0  0  0
    4.0614   -7.0367   27.0106 N   0  0  0  0  0  0  0  0  0  0  0  0
   -2.9133  -11.6279   18.7578 C   0  0  0  0  0  0  0  0  0  0  0  0
    4.5688  -10.1291   29.5758 C   0  0  0  0  0  0  0  0  0  0  0  0
    2.1008   -9.0410   29.1852 N   0  0  0  0  0  0  0  0  0  0  0  0
    3.4829  -10.5697   30.2091 N   0  0  0  0  0  0  0  0  0  0  0  0
   -0.3363   -6.1172   27.5628 C   0  0  0  0  0  0  0  0  0  0  0  0
    3.0331   -7.4400   27.6362 C   0  0  0  0  0  0  0  0  0  0  0  0
    5.4553   -8.5933   27.9644 C   0  0  0  0  0  0  0  0  0  0  0  0
   -2.3870  -12.8440   19.2512 C   0  0  0  0  0  0  0  0  0  0  0  0
    0.5331   -7.6964   16.2751 C   0  0  0  0  0  0  0  0  0  0  0  0
   -0.6740  -10.8737   18.0482 C   0  0  0  0  0  0  0  0  0  0  0  0
    5.6751  -10.5870   29.7637 O   0  0  0  0  0  0  0  0  0  0  0  0
    1.7612   -5.6483   26.7172 C   0  0  0  0  0  0  0  0  0  0  0  0
    0.2221   -9.8326   17.4055 C   0  0  0  0  0  0  0  0  0  0  0  0
    4.3850   -9.0730   28.6745 C   0  0  0  0  0  0  0  0  0  0  0  0
  1  7  4  0
  1 22  4  0
  2 17  4  0
  2 20  4  0
  2 28  4  0
  3  6  1  0
  3 19  1  0
  4 19  1  0
  4 26  1  0
  5 17  4  0
  5 18  4  0
  6 20  1  0
  6 26  1  0
  7 24  4  0
  8 15  4  0
  8 24  4  0
  9 14  4  0
  9 21  4  0
 10 12  4  0
 10 27  4  0
 11 12  4  0
 11 23  4  0
 13 23  4  0
 13 27  4  0
 14 20  4  0
 15 22  4  0
 16 18  4  0
 16 25  2  0
 16 28  4  0
 21 28  4  0
 24 27  1  0
M  END
$$$$

 Created by Python create_sdf_string function

 28 31  0  0  0  0  0  0  0  0999 V2000
   -1.0054  -13.0622   19.1198 C   0  0  0  0  0  0  0  0  0  0  0  0
    3.1478   -8.5360   28.5161 C   0  0  0  0  0  0  0  0  0  0  0  0
    0.5798   -7.1906   27.9330 C   0  0  0  0  0  0  0  0  0  0  0  0
    0.3978   -5.1561   26.6955 C   0  0  0  0  0  0  0  0  0  0  0  0
    2.3063  -10.0533   30.0125 C   0  0  0  0  0  0  0  0  0  0  0  0
    1.8591   -6.8254   27.4685 N   0  0  0  0  0  0  0  0  0  0  0  0
   -0.2167  -12.1055   18.5568 C   0  0  0  0  0  0  0  0  0  0  0  0
   -2.0661  -10.6994   18.1916 C   0  0  0  0  0  0  0  0  0  0  0  0
    5.2703   -7.5691   27.1123 C   0  0  0  0  0  0  0  0  0  0  0  0
    1.6204   -9.9887   17.2935 C   0  0  0  0  0  0  0  0  0  0  0  0
    1.8931   -7.9265   16.2047 C   0  0  0  0  0  0  0  0  0  0  0  0
    2.4396   -9.0801   16.7132 C   0  0  0  0  0  0  0  0  0  0  0  0
   -0.2575   -8.6234   16.8582 C   0  0  0  0  0  0  0  0  0  0  0  0
    4.0614   -7.0367   27.0106 N   0  0  0  0  0  0  0  0  0  0  0  0
   -2.9133  -11.6279   18.7578 C   0  0  0  0  0  0  0  0  0  0  0  0
    4.5688  -10.1291   29.5758 C   0  0  0  0  0  0  0  0  0  0  0  0
    2.1008   -9.0410   29.1852 N   0  0  0  0  0  0  0  0  0  0  0  0
    3.4829  -10.5697   30.2091 N   0  0  0  0  0  0  0  0  0  0  0  0
   -0.3363   -6.1172   27.5628 C   0  0  0  0  0  0  0  0  0  0  0  0
    3.0331   -7.4400   27.6362 C   0  0  0  0  0  0  0  0  0  0  0  0
    5.4553   -8.5933   27.9644 C   0  0  0  0  0  0  0  0  0  0  0  0
   -2.3870  -12.8440   19.2512 C   0  0  0  0  0  0  0  0  0  0  0  0
    0.5331   -7.6964   16.2751 C   0  0  0  0  0  0  0  0  0  0  0  0
   -0.6740  -10.8737   18.0482 C   0  0  0  0  0  0  0  0  0  0  0  0
    5.6751  -10.5870   29.7637 O   0  0  0  0  0  0  0  0  0  0  0  0
    1.7612   -5.6483   26.7172 C   0  0  0  0  0  0  0  0  0  0  0  0
    0.2221   -9.8326   17.4055 C   0  0  0  0  0  0  0  0  0  0  0  0
    4.3850   -9.0730   28.6745 C   0  0  0  0  0  0  0  0  0  0  0  0
  1  7  4  0
  1 22  4  0
  2 17  4  0
  2 20  4  0
  2 28  4  0
  3  6  1  0
  3 19  1  0
  4 19  1  0
  4 26  1  0
  5 17  4  0
  5 18  4  0
  6 20  1  0
  6 26  1  0
  7 24  4  0
  8 15  4  0
  8 24  4  0
  9 14  4  0
  9 21  4  0
 10 12  4  0
 10 27  4  0
 11 12  4  0
 11 23  4  0
 13 23  4  0
 13 27  4  0
 14 20  4  0
 15 22  4  0
 16 18  4  0
 16 25  2  0
 16 28  4  0
 21 28  4  0
 24 27  1  0
M  END
$$$$

 Created by Python create_sdf_string function

 28 31  0  0  0  0  0  0  0  0999 V2000
   -1.0054  -13.0622   19.1198 C   0  0  0  0  0  0  0  0  0  0  0  0
    3.1478   -8.5360   28.5161 C   0  0  0  0  0  0  0  0  0  0  0  0
    0.5798   -7.1906   27.9330 C   0  0  0  0  0  0  0  0  0  0  0  0
    0.3978   -5.1561   26.6955 C   0  0  0  0  0  0  0  0  0  0  0  0
    2.3063  -10.0533   30.0125 C   0  0  0  0  0  0  0  0  0  0  0  0
    1.8591   -6.8254   27.4685 N   0  0  0  0  0  0  0  0  0  0  0  0
   -0.2167  -12.1055   18.5568 C   0  0  0  0  0  0  0  0  0  0  0  0
   -2.0661  -10.6994   18.1916 C   0  0  0  0  0  0  0  0  0  0  0  0
    5.2703   -7.5691   27.1123 C   0  0  0  0  0  0  0  0  0  0  0  0
    1.6204   -9.9887   17.2935 C   0  0  0  0  0  0  0  0  0  0  0  0
    1.8931   -7.9265   16.2047 C   0  0  0  0  0  0  0  0  0  0  0  0
    2.4396   -9.0801   16.7132 C   0  0  0  0  0  0  0  0  0  0  0  0
   -0.2575   -8.6234   16.8582 C   0  0  0  0  0  0  0  0  0  0  0  0
    4.0614   -7.0367   27.0106 N   0  0  0  0  0  0  0  0  0  0  0  0
   -2.9133  -11.6279   18.7578 C   0  0  0  0  0  0  0  0  0  0  0  0
    4.5688  -10.1291   29.5758 C   0  0  0  0  0  0  0  0  0  0  0  0
    2.1008   -9.0410   29.1852 N   0  0  0  0  0  0  0  0  0  0  0  0
    3.4829  -10.5697   30.2091 N   0  0  0  0  0  0  0  0  0  0  0  0
   -0.3363   -6.1172   27.5628 C   0  0  0  0  0  0  0  0  0  0  0  0
    3.0331   -7.4400   27.6362 C   0  0  0  0  0  0  0  0  0  0  0  0
    5.4553   -8.5933   27.9644 C   0  0  0  0  0  0  0  0  0  0  0  0
   -2.3870  -12.8440   19.2512 C   0  0  0  0  0  0  0  0  0  0  0  0
    0.5331   -7.6964   16.2751 C   0  0  0  0  0  0  0  0  0  0  0  0
   -0.6740  -10.8737   18.0482 C   0  0  0  0  0  0  0  0  0  0  0  0
    5.6751  -10.5870   29.7637 O   0  0  0  0  0  0  0  0  0  0  0  0
    1.7612   -5.6483   26.7172 C   0  0  0  0  0  0  0  0  0  0  0  0
    0.2221   -9.8326   17.4055 C   0  0  0  0  0  0  0  0  0  0  0  0
    4.3850   -9.0730   28.6745 C   0  0  0  0  0  0  0  0  0  0  0  0
  1  7  4  0
  1 22  4  0
  2 17  4  0
  2 20  4  0
  2 28  4  0
  3  6  1  0
  3 19  1  0
  4 19  1  0
  4 26  1  0
  5 17  4  0
  5 18  4  0
  6 20  1  0
  6 26  1  0
  7 24  4  0
  8 15  4  0
  8 24  4  0
  9 14  4  0
  9 21  4  0
 10 12  4  0
 10 27  4  0
 11 12  4  0
 11 23  4  0
 13 23  4  0
 13 27  4  0
 14 20  4  0
 15 22  4  0
 16 18  4  0
 16 25  2  0
 16 28  4  0
 21 28  4  0
 24 27  1  0
M  END
$$$$

 Created by Python create_sdf_string function

 28 31  0  0  0  0  0  0  0  0999 V2000
   -1.0054  -13.0622   19.1198 C   0  0  0  0  0  0  0  0  0  0  0  0
    3.1478   -8.5360   28.5161 C   0  0  0  0  0  0  0  0  0  0  0  0
    0.5798   -7.1906   27.9330 C   0  0  0  0  0  0  0  0  0  0  0  0
    0.3978   -5.1561   26.6955 C   0  0  0  0  0  0  0  0  0  0  0  0
    2.3063  -10.0533   30.0125 C   0  0  0  0  0  0  0  0  0  0  0  0
    1.8591   -6.8254   27.4685 N   0  0  0  0  0  0  0  0  0  0  0  0
   -0.2167  -12.1055   18.5568 C   0  0  0  0  0  0  0  0  0  0  0  0
   -2.0661  -10.6994   18.1916 C   0  0  0  0  0  0  0  0  0  0  0  0
    5.2703   -7.5691   27.1123 C   0  0  0  0  0  0  0  0  0  0  0  0
    1.6204   -9.9887   17.2935 C   0  0  0  0  0  0  0  0  0  0  0  0
    1.8931   -7.9265   16.2047 C   0  0  0  0  0  0  0  0  0  0  0  0
    2.4396   -9.0801   16.7132 C   0  0  0  0  0  0  0  0  0  0  0  0
   -0.2575   -8.6234   16.8582 C   0  0  0  0  0  0  0  0  0  0  0  0
    4.0614   -7.0367   27.0106 N   0  0  0  0  0  0  0  0  0  0  0  0
   -2.9133  -11.6279   18.7578 C   0  0  0  0  0  0  0  0  0  0  0  0
    4.5688  -10.1291   29.5758 C   0  0  0  0  0  0  0  0  0  0  0  0
    2.1008   -9.0410   29.1852 N   0  0  0  0  0  0  0  0  0  0  0  0
    3.4829  -10.5697   30.2091 N   0  0  0  0  0  0  0  0  0  0  0  0
   -0.3363   -6.1172   27.5628 C   0  0  0  0  0  0  0  0  0  0  0  0
    3.0331   -7.4400   27.6362 C   0  0  0  0  0  0  0  0  0  0  0  0
    5.4553   -8.5933   27.9644 C   0  0  0  0  0  0  0  0  0  0  0  0
   -2.3870  -12.8440   19.2512 C   0  0  0  0  0  0  0  0  0  0  0  0
    0.5331   -7.6964   16.2751 C   0  0  0  0  0  0  0  0  0  0  0  0
   -0.6740  -10.8737   18.0482 C   0  0  0  0  0  0  0  0  0  0  0  0
    5.6751  -10.5870   29.7637 O   0  0  0  0  0  0  0  0  0  0  0  0
    1.7612   -5.6483   26.7172 C   0  0  0  0  0  0  0  0  0  0  0  0
    0.2221   -9.8326   17.4055 C   0  0  0  0  0  0  0  0  0  0  0  0
    4.3850   -9.0730   28.6745 C   0  0  0  0  0  0  0  0  0  0  0  0
  1  7  4  0
  1 22  4  0
  2 17  4  0
  2 20  4  0
  2 28  4  0
  3  6  1  0
  3 19  1  0
  4 19  1  0
  4 26  1  0
  5 17  4  0
  5 18  4  0
  6 20  1  0
  6 26  1  0
  7 24  4  0
  8 15  4  0
  8 24  4  0
  9 14  4  0
  9 21  4  0
 10 12  4  0
 10 27  4  0
 11 12  4  0
 11 23  4  0
 13 23  4  0
 13 27  4  0
 14 20  4  0
 15 22  4  0
 16 18  4  0
 16 25  2  0
 16 28  4  0
 21 28  4  0
 24 27  1  0
M  END
$$$$

 Created by Python create_sdf_string function

 28 31  0  0  0  0  0  0  0  0999 V2000
   -1.0054  -13.0622   19.1198 C   0  0  0  0  0  0  0  0  0  0  0  0
    3.1478   -8.5360   28.5161 C   0  0  0  0  0  0  0  0  0  0  0  0
    0.5798   -7.1906   27.9330 C   0  0  0  0  0  0  0  0  0  0  0  0
    0.3978   -5.1561   26.6955 C   0  0  0  0  0  0  0  0  0  0  0  0
    2.3063  -10.0533   30.0125 C   0  0  0  0  0  0  0  0  0  0  0  0
    1.8591   -6.8254   27.4685 N   0  0  0  0  0  0  0  0  0  0  0  0
   -0.2167  -12.1055   18.5568 C   0  0  0  0  0  0  0  0  0  0  0  0
   -2.0661  -10.6994   18.1916 C   0  0  0  0  0  0  0  0  0  0  0  0
    5.2703   -7.5691   27.1123 C   0  0  0  0  0  0  0  0  0  0  0  0
    1.6204   -9.9887   17.2935 C   0  0  0  0  0  0  0  0  0  0  0  0
    1.8931   -7.9265   16.2047 C   0  0  0  0  0  0  0  0  0  0  0  0
    2.4396   -9.0801   16.7132 C   0  0  0  0  0  0  0  0  0  0  0  0
   -0.2575   -8.6234   16.8582 C   0  0  0  0  0  0  0  0  0  0  0  0
    4.0614   -7.0367   27.0106 N   0  0  0  0  0  0  0  0  0  0  0  0
   -2.9133  -11.6279   18.7578 C   0  0  0  0  0  0  0  0  0  0  0  0
    4.5688  -10.1291   29.5758 C   0  0  0  0  0  0  0  0  0  0  0  0
    2.1008   -9.0410   29.1852 N   0  0  0  0  0  0  0  0  0  0  0  0
    3.4829  -10.5697   30.2091 N   0  0  0  0  0  0  0  0  0  0  0  0
   -0.3363   -6.1172   27.5628 C   0  0  0  0  0  0  0  0  0  0  0  0
    3.0331   -7.4400   27.6362 C   0  0  0  0  0  0  0  0  0  0  0  0
    5.4553   -8.5933   27.9644 C   0  0  0  0  0  0  0  0  0  0  0  0
   -2.3870  -12.8440   19.2512 C   0  0  0  0  0  0  0  0  0  0  0  0
    0.5331   -7.6964   16.2751 C   0  0  0  0  0  0  0  0  0  0  0  0
   -0.6740  -10.8737   18.0482 C   0  0  0  0  0  0  0  0  0  0  0  0
    5.6751  -10.5870   29.7637 O   0  0  0  0  0  0  0  0  0  0  0  0
    1.7612   -5.6483   26.7172 C   0  0  0  0  0  0  0  0  0  0  0  0
    0.2221   -9.8326   17.4055 C   0  0  0  0  0  0  0  0  0  0  0  0
    4.3850   -9.0730   28.6745 C   0  0  0  0  0  0  0  0  0  0  0  0
  1  7  4  0
  1 22  4  0
  2 17  4  0
  2 20  4  0
  2 28  4  0
  3  6  1  0
  3 19  1  0
  4 19  1  0
  4 26  1  0
  5 17  4  0
  5 18  4  0
  6 20  1  0
  6 26  1  0
  7 24  4  0
  8 15  4  0
  8 24  4  0
  9 14  4  0
  9 21  4  0
 10 12  4  0
 10 27  4  0
 11 12  4  0
 11 23  4  0
 13 23  4  0
 13 27  4  0
 14 20  4  0
 15 22  4  0
 16 18  4  0
 16 25  2  0
 16 28  4  0
 21 28  4  0
 24 27  1  0
M  END
$$$$

 Created by Python create_sdf_string function

 28 31  0  0  0  0  0  0  0  0999 V2000
   -1.0054  -13.0622   19.1198 C   0  0  0  0  0  0  0  0  0  0  0  0
    3.1478   -8.5360   28.5161 C   0  0  0  0  0  0  0  0  0  0  0  0
    0.5798   -7.1906   27.9330 C   0  0  0  0  0  0  0  0  0  0  0  0
    0.3978   -5.1561   26.6955 C   0  0  0  0  0  0  0  0  0  0  0  0
    2.3063  -10.0533   30.0125 C   0  0  0  0  0  0  0  0  0  0  0  0
    1.8591   -6.8254   27.4685 N   0  0  0  0  0  0  0  0  0  0  0  0
   -0.2167  -12.1055   18.5568 C   0  0  0  0  0  0  0  0  0  0  0  0
   -2.0661  -10.6994   18.1916 C   0  0  0  0  0  0  0  0  0  0  0  0
    5.2703   -7.5691   27.1123 C   0  0  0  0  0  0  0  0  0  0  0  0
    1.6204   -9.9887   17.2935 C   0  0  0  0  0  0  0  0  0  0  0  0
    1.8931   -7.9265   16.2047 C   0  0  0  0  0  0  0  0  0  0  0  0
    2.4396   -9.0801   16.7132 C   0  0  0  0  0  0  0  0  0  0  0  0
   -0.2575   -8.6234   16.8582 C   0  0  0  0  0  0  0  0  0  0  0  0
    4.0614   -7.0367   27.0106 N   0  0  0  0  0  0  0  0  0  0  0  0
   -2.9133  -11.6279   18.7578 C   0  0  0  0  0  0  0  0  0  0  0  0
    4.5688  -10.1291   29.5758 C   0  0  0  0  0  0  0  0  0  0  0  0
    2.1008   -9.0410   29.1852 N   0  0  0  0  0  0  0  0  0  0  0  0
    3.4829  -10.5697   30.2091 N   0  0  0  0  0  0  0  0  0  0  0  0
   -0.3363   -6.1172   27.5628 C   0  0  0  0  0  0  0  0  0  0  0  0
    3.0331   -7.4400   27.6362 C   0  0  0  0  0  0  0  0  0  0  0  0
    5.4553   -8.5933   27.9644 C   0  0  0  0  0  0  0  0  0  0  0  0
   -2.3870  -12.8440   19.2512 C   0  0  0  0  0  0  0  0  0  0  0  0
    0.5331   -7.6964   16.2751 C   0  0  0  0  0  0  0  0  0  0  0  0
   -0.6740  -10.8737   18.0482 C   0  0  0  0  0  0  0  0  0  0  0  0
    5.6751  -10.5870   29.7637 O   0  0  0  0  0  0  0  0  0  0  0  0
    1.7612   -5.6483   26.7172 C   0  0  0  0  0  0  0  0  0  0  0  0
    0.2221   -9.8326   17.4055 C   0  0  0  0  0  0  0  0  0  0  0  0
    4.3850   -9.0730   28.6745 C   0  0  0  0  0  0  0  0  0  0  0  0
  1  7  4  0
  1 22  4  0
  2 17  4  0
  2 20  4  0
  2 28  4  0
  3  6  1  0
  3 19  1  0
  4 19  1  0
  4 26  1  0
  5 17  4  0
  5 18  4  0
  6 20  1  0
  6 26  1  0
  7 24  4  0
  8 15  4  0
  8 24  4  0
  9 14  4  0
  9 21  4  0
 10 12  4  0
 10 27  4  0
 11 12  4  0
 11 23  4  0
 13 23  4  0
 13 27  4  0
 14 20  4  0
 15 22  4  0
 16 18  4  0
 16 25  2  0
 16 28  4  0
 21 28  4  0
 24 27  1  0
M  END
$$$$

 Created by Python create_sdf_string function

 28 31  0  0  0  0  0  0  0  0999 V2000
   -1.0054  -13.0622   19.1198 C   0  0  0  0  0  0  0  0  0  0  0  0
    3.1478   -8.5360   28.5161 C   0  0  0  0  0  0  0  0  0  0  0  0
    0.5798   -7.1906   27.9330 C   0  0  0  0  0  0  0  0  0  0  0  0
    0.3978   -5.1561   26.6955 C   0  0  0  0  0  0  0  0  0  0  0  0
    2.3063  -10.0533   30.0125 C   0  0  0  0  0  0  0  0  0  0  0  0
    1.8591   -6.8254   27.4685 N   0  0  0  0  0  0  0  0  0  0  0  0
   -0.2167  -12.1055   18.5568 C   0  0  0  0  0  0  0  0  0  0  0  0
   -2.0661  -10.6994   18.1916 C   0  0  0  0  0  0  0  0  0  0  0  0
    5.2703   -7.5691   27.1123 C   0  0  0  0  0  0  0  0  0  0  0  0
    1.6204   -9.9887   17.2935 C   0  0  0  0  0  0  0  0  0  0  0  0
    1.8931   -7.9265   16.2047 C   0  0  0  0  0  0  0  0  0  0  0  0
    2.4396   -9.0801   16.7132 C   0  0  0  0  0  0  0  0  0  0  0  0
   -0.2575   -8.6234   16.8582 C   0  0  0  0  0  0  0  0  0  0  0  0
    4.0614   -7.0367   27.0106 N   0  0  0  0  0  0  0  0  0  0  0  0
   -2.9133  -11.6279   18.7578 C   0  0  0  0  0  0  0  0  0  0  0  0
    4.5688  -10.1291   29.5758 C   0  0  0  0  0  0  0  0  0  0  0  0
    2.1008   -9.0410   29.1852 N   0  0  0  0  0  0  0  0  0  0  0  0
    3.4829  -10.5697   30.2091 N   0  0  0  0  0  0  0  0  0  0  0  0
   -0.3363   -6.1172   27.5628 C   0  0  0  0  0  0  0  0  0  0  0  0
    3.0331   -7.4400   27.6362 C   0  0  0  0  0  0  0  0  0  0  0  0
    5.4553   -8.5933   27.9644 C   0  0  0  0  0  0  0  0  0  0  0  0
   -2.3870  -12.8440   19.2512 C   0  0  0  0  0  0  0  0  0  0  0  0
    0.5331   -7.6964   16.2751 C   0  0  0  0  0  0  0  0  0  0  0  0
   -0.6740  -10.8737   18.0482 C   0  0  0  0  0  0  0  0  0  0  0  0
    5.6751  -10.5870   29.7637 O   0  0  0  0  0  0  0  0  0  0  0  0
    1.7612   -5.6483   26.7172 C   0  0  0  0  0  0  0  0  0  0  0  0
    0.2221   -9.8326   17.4055 C   0  0  0  0  0  0  0  0  0  0  0  0
    4.3850   -9.0730   28.6745 C   0  0  0  0  0  0  0  0  0  0  0  0
  1  7  4  0
  1 22  4  0
  2 17  4  0
  2 20  4  0
  2 28  4  0
  3  6  1  0
  3 19  1  0
  4 19  1  0
  4 26  1  0
  5 17  4  0
  5 18  4  0
  6 20  1  0
  6 26  1  0
  7 24  4  0
  8 15  4  0
  8 24  4  0
  9 14  4  0
  9 21  4  0
 10 12  4  0
 10 27  4  0
 11 12  4  0
 11 23  4  0
 13 23  4  0
 13 27  4  0
 14 20  4  0
 15 22  4  0
 16 18  4  0
 16 25  2  0
 16 28  4  0
 21 28  4  0
 24 27  1  0
M  END
$$$$

 Created by Python create_sdf_string function

 28 31  0  0  0  0  0  0  0  0999 V2000
   -1.0054  -13.0622   19.1198 C   0  0  0  0  0  0  0  0  0  0  0  0
    3.1478   -8.5360   28.5161 C   0  0  0  0  0  0  0  0  0  0  0  0
    0.5798   -7.1906   27.9330 C   0  0  0  0  0  0  0  0  0  0  0  0
    0.3978   -5.1561   26.6955 C   0  0  0  0  0  0  0  0  0  0  0  0
    2.3063  -10.0533   30.0125 C   0  0  0  0  0  0  0  0  0  0  0  0
    1.8591   -6.8254   27.4685 N   0  0  0  0  0  0  0  0  0  0  0  0
   -0.2167  -12.1055   18.5568 C   0  0  0  0  0  0  0  0  0  0  0  0
   -2.0661  -10.6994   18.1916 C   0  0  0  0  0  0  0  0  0  0  0  0
    5.2703   -7.5691   27.1123 C   0  0  0  0  0  0  0  0  0  0  0  0
    1.6204   -9.9887   17.2935 C   0  0  0  0  0  0  0  0  0  0  0  0
    1.8931   -7.9265   16.2047 C   0  0  0  0  0  0  0  0  0  0  0  0
    2.4396   -9.0801   16.7132 C   0  0  0  0  0  0  0  0  0  0  0  0
   -0.2575   -8.6234   16.8582 C   0  0  0  0  0  0  0  0  0  0  0  0
    4.0614   -7.0367   27.0106 N   0  0  0  0  0  0  0  0  0  0  0  0
   -2.9133  -11.6279   18.7578 C   0  0  0  0  0  0  0  0  0  0  0  0
    4.5688  -10.1291   29.5758 C   0  0  0  0  0  0  0  0  0  0  0  0
    2.1008   -9.0410   29.1852 N   0  0  0  0  0  0  0  0  0  0  0  0
    3.4829  -10.5697   30.2091 N   0  0  0  0  0  0  0  0  0  0  0  0
   -0.3363   -6.1172   27.5628 C   0  0  0  0  0  0  0  0  0  0  0  0
    3.0331   -7.4400   27.6362 C   0  0  0  0  0  0  0  0  0  0  0  0
    5.4553   -8.5933   27.9644 C   0  0  0  0  0  0  0  0  0  0  0  0
   -2.3870  -12.8440   19.2512 C   0  0  0  0  0  0  0  0  0  0  0  0
    0.5331   -7.6964   16.2751 C   0  0  0  0  0  0  0  0  0  0  0  0
   -0.6740  -10.8737   18.0482 C   0  0  0  0  0  0  0  0  0  0  0  0
    5.6751  -10.5870   29.7637 O   0  0  0  0  0  0  0  0  0  0  0  0
    1.7612   -5.6483   26.7172 C   0  0  0  0  0  0  0  0  0  0  0  0
    0.2221   -9.8326   17.4055 C   0  0  0  0  0  0  0  0  0  0  0  0
    4.3850   -9.0730   28.6745 C   0  0  0  0  0  0  0  0  0  0  0  0
  1  7  4  0
  1 22  4  0
  2 17  4  0
  2 20  4  0
  2 28  4  0
  3  6  1  0
  3 19  1  0
  4 19  1  0
  4 26  1  0
  5 17  4  0
  5 18  4  0
  6 20  1  0
  6 26  1  0
  7 24  4  0
  8 15  4  0
  8 24  4  0
  9 14  4  0
  9 21  4  0
 10 12  4  0
 10 27  4  0
 11 12  4  0
 11 23  4  0
 13 23  4  0
 13 27  4  0
 14 20  4  0
 15 22  4  0
 16 18  4  0
 16 25  2  0
 16 28  4  0
 21 28  4  0
 24 27  1  0
M  END
$$$$

 Created by Python create_sdf_string function

 28 31  0  0  0  0  0  0  0  0999 V2000
   -1.0054  -13.0622   19.1198 C   0  0  0  0  0  0  0  0  0  0  0  0
    3.1478   -8.5360   28.5161 C   0  0  0  0  0  0  0  0  0  0  0  0
    0.5798   -7.1906   27.9330 C   0  0  0  0  0  0  0  0  0  0  0  0
    0.3978   -5.1561   26.6955 C   0  0  0  0  0  0  0  0  0  0  0  0
    2.3063  -10.0533   30.0125 C   0  0  0  0  0  0  0  0  0  0  0  0
    1.8591   -6.8254   27.4685 N   0  0  0  0  0  0  0  0  0  0  0  0
   -0.2167  -12.1055   18.5568 C   0  0  0  0  0  0  0  0  0  0  0  0
   -2.0661  -10.6994   18.1916 C   0  0  0  0  0  0  0  0  0  0  0  0
    5.2703   -7.5691   27.1123 C   0  0  0  0  0  0  0  0  0  0  0  0
    1.6204   -9.9887   17.2935 C   0  0  0  0  0  0  0  0  0  0  0  0
    1.8931   -7.9265   16.2047 C   0  0  0  0  0  0  0  0  0  0  0  0
    2.4396   -9.0801   16.7132 C   0  0  0  0  0  0  0  0  0  0  0  0
   -0.2575   -8.6234   16.8582 C   0  0  0  0  0  0  0  0  0  0  0  0
    4.0614   -7.0367   27.0106 N   0  0  0  0  0  0  0  0  0  0  0  0
   -2.9133  -11.6279   18.7578 C   0  0  0  0  0  0  0  0  0  0  0  0
    4.5688  -10.1291   29.5758 C   0  0  0  0  0  0  0  0  0  0  0  0
    2.1008   -9.0410   29.1852 N   0  0  0  0  0  0  0  0  0  0  0  0
    3.4829  -10.5697   30.2091 N   0  0  0  0  0  0  0  0  0  0  0  0
   -0.3363   -6.1172   27.5628 C   0  0  0  0  0  0  0  0  0  0  0  0
    3.0331   -7.4400   27.6362 C   0  0  0  0  0  0  0  0  0  0  0  0
    5.4553   -8.5933   27.9644 C   0  0  0  0  0  0  0  0  0  0  0  0
   -2.3870  -12.8440   19.2512 C   0  0  0  0  0  0  0  0  0  0  0  0
    0.5331   -7.6964   16.2751 C   0  0  0  0  0  0  0  0  0  0  0  0
   -0.6740  -10.8737   18.0482 C   0  0  0  0  0  0  0  0  0  0  0  0
    5.6751  -10.5870   29.7637 O   0  0  0  0  0  0  0  0  0  0  0  0
    1.7612   -5.6483   26.7172 C   0  0  0  0  0  0  0  0  0  0  0  0
    0.2221   -9.8326   17.4055 C   0  0  0  0  0  0  0  0  0  0  0  0
    4.3850   -9.0730   28.6745 C   0  0  0  0  0  0  0  0  0  0  0  0
  1  7  4  0
  1 22  4  0
  2 17  4  0
  2 20  4  0
  2 28  4  0
  3  6  1  0
  3 19  1  0
  4 19  1  0
  4 26  1  0
  5 17  4  0
  5 18  4  0
  6 20  1  0
  6 26  1  0
  7 24  4  0
  8 15  4  0
  8 24  4  0
  9 14  4  0
  9 21  4  0
 10 12  4  0
 10 27  4  0
 11 12  4  0
 11 23  4  0
 13 23  4  0
 13 27  4  0
 14 20  4  0
 15 22  4  0
 16 18  4  0
 16 25  2  0
 16 28  4  0
 21 28  4  0
 24 27  1  0
M  END
$$$$

 Created by Python create_sdf_string function

 28 31  0  0  0  0  0  0  0  0999 V2000
   -1.0054  -13.0622   19.1198 C   0  0  0  0  0  0  0  0  0  0  0  0
    3.1478   -8.5360   28.5161 C   0  0  0  0  0  0  0  0  0  0  0  0
    0.5798   -7.1906   27.9330 C   0  0  0  0  0  0  0  0  0  0  0  0
    0.3978   -5.1561   26.6955 C   0  0  0  0  0  0  0  0  0  0  0  0
    2.3063  -10.0533   30.0125 C   0  0  0  0  0  0  0  0  0  0  0  0
    1.8591   -6.8254   27.4685 N   0  0  0  0  0  0  0  0  0  0  0  0
   -0.2167  -12.1055   18.5568 C   0  0  0  0  0  0  0  0  0  0  0  0
   -2.0661  -10.6994   18.1916 C   0  0  0  0  0  0  0  0  0  0  0  0
    5.2703   -7.5691   27.1123 C   0  0  0  0  0  0  0  0  0  0  0  0
    1.6204   -9.9887   17.2935 C   0  0  0  0  0  0  0  0  0  0  0  0
    1.8931   -7.9265   16.2047 C   0  0  0  0  0  0  0  0  0  0  0  0
    2.4396   -9.0801   16.7132 C   0  0  0  0  0  0  0  0  0  0  0  0
   -0.2575   -8.6234   16.8582 C   0  0  0  0  0  0  0  0  0  0  0  0
    4.0614   -7.0367   27.0106 N   0  0  0  0  0  0  0  0  0  0  0  0
   -2.9133  -11.6279   18.7578 C   0  0  0  0  0  0  0  0  0  0  0  0
    4.5688  -10.1291   29.5758 C   0  0  0  0  0  0  0  0  0  0  0  0
    2.1008   -9.0410   29.1852 N   0  0  0  0  0  0  0  0  0  0  0  0
    3.4829  -10.5697   30.2091 N   0  0  0  0  0  0  0  0  0  0  0  0
   -0.3363   -6.1172   27.5628 C   0  0  0  0  0  0  0  0  0  0  0  0
    3.0331   -7.4400   27.6362 C   0  0  0  0  0  0  0  0  0  0  0  0
    5.4553   -8.5933   27.9644 C   0  0  0  0  0  0  0  0  0  0  0  0
   -2.3870  -12.8440   19.2512 C   0  0  0  0  0  0  0  0  0  0  0  0
    0.5331   -7.6964   16.2751 C   0  0  0  0  0  0  0  0  0  0  0  0
   -0.6740  -10.8737   18.0482 C   0  0  0  0  0  0  0  0  0  0  0  0
    5.6751  -10.5870   29.7637 O   0  0  0  0  0  0  0  0  0  0  0  0
    1.7612   -5.6483   26.7172 C   0  0  0  0  0  0  0  0  0  0  0  0
    0.2221   -9.8326   17.4055 C   0  0  0  0  0  0  0  0  0  0  0  0
    4.3850   -9.0730   28.6745 C   0  0  0  0  0  0  0  0  0  0  0  0
  1  7  4  0
  1 22  4  0
  2 17  4  0
  2 20  4  0
  2 28  4  0
  3  6  1  0
  3 19  1  0
  4 19  1  0
  4 26  1  0
  5 17  4  0
  5 18  4  0
  6 20  1  0
  6 26  1  0
  7 24  4  0
  8 15  4  0
  8 24  4  0
  9 14  4  0
  9 21  4  0
 10 12  4  0
 10 27  4  0
 11 12  4  0
 11 23  4  0
 13 23  4  0
 13 27  4  0
 14 20  4  0
 15 22  4  0
 16 18  4  0
 16 25  2  0
 16 28  4  0
 21 28  4  0
 24 27  1  0
M  END
$$$$

 Created by Python create_sdf_string function

 28 31  0  0  0  0  0  0  0  0999 V2000
   -1.0054  -13.0622   19.1198 C   0  0  0  0  0  0  0  0  0  0  0  0
    3.1478   -8.5360   28.5161 C   0  0  0  0  0  0  0  0  0  0  0  0
    0.5798   -7.1906   27.9330 C   0  0  0  0  0  0  0  0  0  0  0  0
    0.3978   -5.1561   26.6955 C   0  0  0  0  0  0  0  0  0  0  0  0
    2.3063  -10.0533   30.0125 C   0  0  0  0  0  0  0  0  0  0  0  0
    1.8591   -6.8254   27.4685 N   0  0  0  0  0  0  0  0  0  0  0  0
   -0.2167  -12.1055   18.5568 C   0  0  0  0  0  0  0  0  0  0  0  0
   -2.0661  -10.6994   18.1916 C   0  0  0  0  0  0  0  0  0  0  0  0
    5.2703   -7.5691   27.1123 C   0  0  0  0  0  0  0  0  0  0  0  0
    1.6204   -9.9887   17.2935 C   0  0  0  0  0  0  0  0  0  0  0  0
    1.8931   -7.9265   16.2047 C   0  0  0  0  0  0  0  0  0  0  0  0
    2.4396   -9.0801   16.7132 C   0  0  0  0  0  0  0  0  0  0  0  0
   -0.2575   -8.6234   16.8582 C   0  0  0  0  0  0  0  0  0  0  0  0
    4.0614   -7.0367   27.0106 N   0  0  0  0  0  0  0  0  0  0  0  0
   -2.9133  -11.6279   18.7578 C   0  0  0  0  0  0  0  0  0  0  0  0
    4.5688  -10.1291   29.5758 C   0  0  0  0  0  0  0  0  0  0  0  0
    2.1008   -9.0410   29.1852 N   0  0  0  0  0  0  0  0  0  0  0  0
    3.4829  -10.5697   30.2091 N   0  0  0  0  0  0  0  0  0  0  0  0
   -0.3363   -6.1172   27.5628 C   0  0  0  0  0  0  0  0  0  0  0  0
    3.0331   -7.4400   27.6362 C   0  0  0  0  0  0  0  0  0  0  0  0
    5.4553   -8.5933   27.9644 C   0  0  0  0  0  0  0  0  0  0  0  0
   -2.3870  -12.8440   19.2512 C   0  0  0  0  0  0  0  0  0  0  0  0
    0.5331   -7.6964   16.2751 C   0  0  0  0  0  0  0  0  0  0  0  0
   -0.6740  -10.8737   18.0482 C   0  0  0  0  0  0  0  0  0  0  0  0
    5.6751  -10.5870   29.7637 O   0  0  0  0  0  0  0  0  0  0  0  0
    1.7612   -5.6483   26.7172 C   0  0  0  0  0  0  0  0  0  0  0  0
    0.2221   -9.8326   17.4055 C   0  0  0  0  0  0  0  0  0  0  0  0
    4.3850   -9.0730   28.6745 C   0  0  0  0  0  0  0  0  0  0  0  0
  1  7  4  0
  1 22  4  0
  2 17  4  0
  2 20  4  0
  2 28  4  0
  3  6  1  0
  3 19  1  0
  4 19  1  0
  4 26  1  0
  5 17  4  0
  5 18  4  0
  6 20  1  0
  6 26  1  0
  7 24  4  0
  8 15  4  0
  8 24  4  0
  9 14  4  0
  9 21  4  0
 10 12  4  0
 10 27  4  0
 11 12  4  0
 11 23  4  0
 13 23  4  0
 13 27  4  0
 14 20  4  0
 15 22  4  0
 16 18  4  0
 16 25  2  0
 16 28  4  0
 21 28  4  0
 24 27  1  0
M  END
$$$$

 Created by Python create_sdf_string function

 28 31  0  0  0  0  0  0  0  0999 V2000
   -1.0054  -13.0622   19.1198 C   0  0  0  0  0  0  0  0  0  0  0  0
    3.1478   -8.5360   28.5161 C   0  0  0  0  0  0  0  0  0  0  0  0
    0.5798   -7.1906   27.9330 C   0  0  0  0  0  0  0  0  0  0  0  0
    0.3978   -5.1561   26.6955 C   0  0  0  0  0  0  0  0  0  0  0  0
    2.3063  -10.0533   30.0125 C   0  0  0  0  0  0  0  0  0  0  0  0
    1.8591   -6.8254   27.4685 N   0  0  0  0  0  0  0  0  0  0  0  0
   -0.2167  -12.1055   18.5568 C   0  0  0  0  0  0  0  0  0  0  0  0
   -2.0661  -10.6994   18.1916 C   0  0  0  0  0  0  0  0  0  0  0  0
    5.2703   -7.5691   27.1123 C   0  0  0  0  0  0  0  0  0  0  0  0
    1.6204   -9.9887   17.2935 C   0  0  0  0  0  0  0  0  0  0  0  0
    1.8931   -7.9265   16.2047 C   0  0  0  0  0  0  0  0  0  0  0  0
    2.4396   -9.0801   16.7132 C   0  0  0  0  0  0  0  0  0  0  0  0
   -0.2575   -8.6234   16.8582 C   0  0  0  0  0  0  0  0  0  0  0  0
    4.0614   -7.0367   27.0106 N   0  0  0  0  0  0  0  0  0  0  0  0
   -2.9133  -11.6279   18.7578 C   0  0  0  0  0  0  0  0  0  0  0  0
    4.5688  -10.1291   29.5758 C   0  0  0  0  0  0  0  0  0  0  0  0
    2.1008   -9.0410   29.1852 N   0  0  0  0  0  0  0  0  0  0  0  0
    3.4829  -10.5697   30.2091 N   0  0  0  0  0  0  0  0  0  0  0  0
   -0.3363   -6.1172   27.5628 C   0  0  0  0  0  0  0  0  0  0  0  0
    3.0331   -7.4400   27.6362 C   0  0  0  0  0  0  0  0  0  0  0  0
    5.4553   -8.5933   27.9644 C   0  0  0  0  0  0  0  0  0  0  0  0
   -2.3870  -12.8440   19.2512 C   0  0  0  0  0  0  0  0  0  0  0  0
    0.5331   -7.6964   16.2751 C   0  0  0  0  0  0  0  0  0  0  0  0
   -0.6740  -10.8737   18.0482 C   0  0  0  0  0  0  0  0  0  0  0  0
    5.6751  -10.5870   29.7637 O   0  0  0  0  0  0  0  0  0  0  0  0
    1.7612   -5.6483   26.7172 C   0  0  0  0  0  0  0  0  0  0  0  0
    0.2221   -9.8326   17.4055 C   0  0  0  0  0  0  0  0  0  0  0  0
    4.3850   -9.0730   28.6745 C   0  0  0  0  0  0  0  0  0  0  0  0
  1  7  4  0
  1 22  4  0
  2 17  4  0
  2 20  4  0
  2 28  4  0
  3  6  1  0
  3 19  1  0
  4 19  1  0
  4 26  1  0
  5 17  4  0
  5 18  4  0
  6 20  1  0
  6 26  1  0
  7 24  4  0
  8 15  4  0
  8 24  4  0
  9 14  4  0
  9 21  4  0
 10 12  4  0
 10 27  4  0
 11 12  4  0
 11 23  4  0
 13 23  4  0
 13 27  4  0
 14 20  4  0
 15 22  4  0
 16 18  4  0
 16 25  2  0
 16 28  4  0
 21 28  4  0
 24 27  1  0
M  END
$$$$

 Created by Python create_sdf_string function

 28 31  0  0  0  0  0  0  0  0999 V2000
   -1.0054  -13.0622   19.1198 C   0  0  0  0  0  0  0  0  0  0  0  0
    3.1478   -8.5360   28.5161 C   0  0  0  0  0  0  0  0  0  0  0  0
    0.5798   -7.1906   27.9330 C   0  0  0  0  0  0  0  0  0  0  0  0
    0.3978   -5.1561   26.6955 C   0  0  0  0  0  0  0  0  0  0  0  0
    2.3063  -10.0533   30.0125 C   0  0  0  0  0  0  0  0  0  0  0  0
    1.8591   -6.8254   27.4685 N   0  0  0  0  0  0  0  0  0  0  0  0
   -0.2167  -12.1055   18.5568 C   0  0  0  0  0  0  0  0  0  0  0  0
   -2.0661  -10.6994   18.1916 C   0  0  0  0  0  0  0  0  0  0  0  0
    5.2703   -7.5691   27.1123 C   0  0  0  0  0  0  0  0  0  0  0  0
    1.6204   -9.9887   17.2935 C   0  0  0  0  0  0  0  0  0  0  0  0
    1.8931   -7.9265   16.2047 C   0  0  0  0  0  0  0  0  0  0  0  0
    2.4396   -9.0801   16.7132 C   0  0  0  0  0  0  0  0  0  0  0  0
   -0.2575   -8.6234   16.8582 C   0  0  0  0  0  0  0  0  0  0  0  0
    4.0614   -7.0367   27.0106 N   0  0  0  0  0  0  0  0  0  0  0  0
   -2.9133  -11.6279   18.7578 C   0  0  0  0  0  0  0  0  0  0  0  0
    4.5688  -10.1291   29.5758 C   0  0  0  0  0  0  0  0  0  0  0  0
    2.1008   -9.0410   29.1852 N   0  0  0  0  0  0  0  0  0  0  0  0
    3.4829  -10.5697   30.2091 N   0  0  0  0  0  0  0  0  0  0  0  0
   -0.3363   -6.1172   27.5628 C   0  0  0  0  0  0  0  0  0  0  0  0
    3.0331   -7.4400   27.6362 C   0  0  0  0  0  0  0  0  0  0  0  0
    5.4553   -8.5933   27.9644 C   0  0  0  0  0  0  0  0  0  0  0  0
   -2.3870  -12.8440   19.2512 C   0  0  0  0  0  0  0  0  0  0  0  0
    0.5331   -7.6964   16.2751 C   0  0  0  0  0  0  0  0  0  0  0  0
   -0.6740  -10.8737   18.0482 C   0  0  0  0  0  0  0  0  0  0  0  0
    5.6751  -10.5870   29.7637 O   0  0  0  0  0  0  0  0  0  0  0  0
    1.7612   -5.6483   26.7172 C   0  0  0  0  0  0  0  0  0  0  0  0
    0.2221   -9.8326   17.4055 C   0  0  0  0  0  0  0  0  0  0  0  0
    4.3850   -9.0730   28.6745 C   0  0  0  0  0  0  0  0  0  0  0  0
  1  7  4  0
  1 22  4  0
  2 17  4  0
  2 20  4  0
  2 28  4  0
  3  6  1  0
  3 19  1  0
  4 19  1  0
  4 26  1  0
  5 17  4  0
  5 18  4  0
  6 20  1  0
  6 26  1  0
  7 24  4  0
  8 15  4  0
  8 24  4  0
  9 14  4  0
  9 21  4  0
 10 12  4  0
 10 27  4  0
 11 12  4  0
 11 23  4  0
 13 23  4  0
 13 27  4  0
 14 20  4  0
 15 22  4  0
 16 18  4  0
 16 25  2  0
 16 28  4  0
 21 28  4  0
 24 27  1  0
M  END
$$$$

 Created by Python create_sdf_string function

 28 31  0  0  0  0  0  0  0  0999 V2000
   -1.0054  -13.0622   19.1198 C   0  0  0  0  0  0  0  0  0  0  0  0
    3.1478   -8.5360   28.5161 C   0  0  0  0  0  0  0  0  0  0  0  0
    0.5798   -7.1906   27.9330 C   0  0  0  0  0  0  0  0  0  0  0  0
    0.3978   -5.1561   26.6955 C   0  0  0  0  0  0  0  0  0  0  0  0
    2.3063  -10.0533   30.0125 C   0  0  0  0  0  0  0  0  0  0  0  0
    1.8591   -6.8254   27.4685 N   0  0  0  0  0  0  0  0  0  0  0  0
   -0.2167  -12.1055   18.5568 C   0  0  0  0  0  0  0  0  0  0  0  0
   -2.0661  -10.6994   18.1916 C   0  0  0  0  0  0  0  0  0  0  0  0
    5.2703   -7.5691   27.1123 C   0  0  0  0  0  0  0  0  0  0  0  0
    1.6204   -9.9887   17.2935 C   0  0  0  0  0  0  0  0  0  0  0  0
    1.8931   -7.9265   16.2047 C   0  0  0  0  0  0  0  0  0  0  0  0
    2.4396   -9.0801   16.7132 C   0  0  0  0  0  0  0  0  0  0  0  0
   -0.2575   -8.6234   16.8582 C   0  0  0  0  0  0  0  0  0  0  0  0
    4.0614   -7.0367   27.0106 N   0  0  0  0  0  0  0  0  0  0  0  0
   -2.9133  -11.6279   18.7578 C   0  0  0  0  0  0  0  0  0  0  0  0
    4.5688  -10.1291   29.5758 C   0  0  0  0  0  0  0  0  0  0  0  0
    2.1008   -9.0410   29.1852 N   0  0  0  0  0  0  0  0  0  0  0  0
    3.4829  -10.5697   30.2091 N   0  0  0  0  0  0  0  0  0  0  0  0
   -0.3363   -6.1172   27.5628 C   0  0  0  0  0  0  0  0  0  0  0  0
    3.0331   -7.4400   27.6362 C   0  0  0  0  0  0  0  0  0  0  0  0
    5.4553   -8.5933   27.9644 C   0  0  0  0  0  0  0  0  0  0  0  0
   -2.3870  -12.8440   19.2512 C   0  0  0  0  0  0  0  0  0  0  0  0
    0.5331   -7.6964   16.2751 C   0  0  0  0  0  0  0  0  0  0  0  0
   -0.6740  -10.8737   18.0482 C   0  0  0  0  0  0  0  0  0  0  0  0
    5.6751  -10.5870   29.7637 O   0  0  0  0  0  0  0  0  0  0  0  0
    1.7612   -5.6483   26.7172 C   0  0  0  0  0  0  0  0  0  0  0  0
    0.2221   -9.8326   17.4055 C   0  0  0  0  0  0  0  0  0  0  0  0
    4.3850   -9.0730   28.6745 C   0  0  0  0  0  0  0  0  0  0  0  0
  1  7  4  0
  1 22  4  0
  2 17  4  0
  2 20  4  0
  2 28  4  0
  3  6  1  0
  3 19  1  0
  4 19  1  0
  4 26  1  0
  5 17  4  0
  5 18  4  0
  6 20  1  0
  6 26  1  0
  7 24  4  0
  8 15  4  0
  8 24  4  0
  9 14  4  0
  9 21  4  0
 10 12  4  0
 10 27  4  0
 11 12  4  0
 11 23  4  0
 13 23  4  0
 13 27  4  0
 14 20  4  0
 15 22  4  0
 16 18  4  0
 16 25  2  0
 16 28  4  0
 21 28  4  0
 24 27  1  0
M  END
$$$$

 Created by Python create_sdf_string function

 28 31  0  0  0  0  0  0  0  0999 V2000
   -1.0054  -13.0622   19.1198 C   0  0  0  0  0  0  0  0  0  0  0  0
    3.1478   -8.5360   28.5161 C   0  0  0  0  0  0  0  0  0  0  0  0
    0.5798   -7.1906   27.9330 C   0  0  0  0  0  0  0  0  0  0  0  0
    0.3978   -5.1561   26.6955 C   0  0  0  0  0  0  0  0  0  0  0  0
    2.3063  -10.0533   30.0125 C   0  0  0  0  0  0  0  0  0  0  0  0
    1.8591   -6.8254   27.4685 N   0  0  0  0  0  0  0  0  0  0  0  0
   -0.2167  -12.1055   18.5568 C   0  0  0  0  0  0  0  0  0  0  0  0
   -2.0661  -10.6994   18.1916 C   0  0  0  0  0  0  0  0  0  0  0  0
    5.2703   -7.5691   27.1123 C   0  0  0  0  0  0  0  0  0  0  0  0
    1.6204   -9.9887   17.2935 C   0  0  0  0  0  0  0  0  0  0  0  0
    1.8931   -7.9265   16.2047 C   0  0  0  0  0  0  0  0  0  0  0  0
    2.4396   -9.0801   16.7132 C   0  0  0  0  0  0  0  0  0  0  0  0
   -0.2575   -8.6234   16.8582 C   0  0  0  0  0  0  0  0  0  0  0  0
    4.0614   -7.0367   27.0106 N   0  0  0  0  0  0  0  0  0  0  0  0
   -2.9133  -11.6279   18.7578 C   0  0  0  0  0  0  0  0  0  0  0  0
    4.5688  -10.1291   29.5758 C   0  0  0  0  0  0  0  0  0  0  0  0
    2.1008   -9.0410   29.1852 N   0  0  0  0  0  0  0  0  0  0  0  0
    3.4829  -10.5697   30.2091 N   0  0  0  0  0  0  0  0  0  0  0  0
   -0.3363   -6.1172   27.5628 C   0  0  0  0  0  0  0  0  0  0  0  0
    3.0331   -7.4400   27.6362 C   0  0  0  0  0  0  0  0  0  0  0  0
    5.4553   -8.5933   27.9644 C   0  0  0  0  0  0  0  0  0  0  0  0
   -2.3870  -12.8440   19.2512 C   0  0  0  0  0  0  0  0  0  0  0  0
    0.5331   -7.6964   16.2751 C   0  0  0  0  0  0  0  0  0  0  0  0
   -0.6740  -10.8737   18.0482 C   0  0  0  0  0  0  0  0  0  0  0  0
    5.6751  -10.5870   29.7637 O   0  0  0  0  0  0  0  0  0  0  0  0
    1.7612   -5.6483   26.7172 C   0  0  0  0  0  0  0  0  0  0  0  0
    0.2221   -9.8326   17.4055 C   0  0  0  0  0  0  0  0  0  0  0  0
    4.3850   -9.0730   28.6745 C   0  0  0  0  0  0  0  0  0  0  0  0
  1  7  4  0
  1 22  4  0
  2 17  4  0
  2 20  4  0
  2 28  4  0
  3  6  1  0
  3 19  1  0
  4 19  1  0
  4 26  1  0
  5 17  4  0
  5 18  4  0
  6 20  1  0
  6 26  1  0
  7 24  4  0
  8 15  4  0
  8 24  4  0
  9 14  4  0
  9 21  4  0
 10 12  4  0
 10 27  4  0
 11 12  4  0
 11 23  4  0
 13 23  4  0
 13 27  4  0
 14 20  4  0
 15 22  4  0
 16 18  4  0
 16 25  2  0
 16 28  4  0
 21 28  4  0
 24 27  1  0
M  END
$$$$

 Created by Python create_sdf_string function

 28 31  0  0  0  0  0  0  0  0999 V2000
   -1.0054  -13.0622   19.1198 C   0  0  0  0  0  0  0  0  0  0  0  0
    3.1478   -8.5360   28.5161 C   0  0  0  0  0  0  0  0  0  0  0  0
    0.5798   -7.1906   27.9330 C   0  0  0  0  0  0  0  0  0  0  0  0
    0.3978   -5.1561   26.6955 C   0  0  0  0  0  0  0  0  0  0  0  0
    2.3063  -10.0533   30.0125 C   0  0  0  0  0  0  0  0  0  0  0  0
    1.8591   -6.8254   27.4685 N   0  0  0  0  0  0  0  0  0  0  0  0
   -0.2167  -12.1055   18.5568 C   0  0  0  0  0  0  0  0  0  0  0  0
   -2.0661  -10.6994   18.1916 C   0  0  0  0  0  0  0  0  0  0  0  0
    5.2703   -7.5691   27.1123 C   0  0  0  0  0  0  0  0  0  0  0  0
    1.6204   -9.9887   17.2935 C   0  0  0  0  0  0  0  0  0  0  0  0
    1.8931   -7.9265   16.2047 C   0  0  0  0  0  0  0  0  0  0  0  0
    2.4396   -9.0801   16.7132 C   0  0  0  0  0  0  0  0  0  0  0  0
   -0.2575   -8.6234   16.8582 C   0  0  0  0  0  0  0  0  0  0  0  0
    4.0614   -7.0367   27.0106 N   0  0  0  0  0  0  0  0  0  0  0  0
   -2.9133  -11.6279   18.7578 C   0  0  0  0  0  0  0  0  0  0  0  0
    4.5688  -10.1291   29.5758 C   0  0  0  0  0  0  0  0  0  0  0  0
    2.1008   -9.0410   29.1852 N   0  0  0  0  0  0  0  0  0  0  0  0
    3.4829  -10.5697   30.2091 N   0  0  0  0  0  0  0  0  0  0  0  0
   -0.3363   -6.1172   27.5628 C   0  0  0  0  0  0  0  0  0  0  0  0
    3.0331   -7.4400   27.6362 C   0  0  0  0  0  0  0  0  0  0  0  0
    5.4553   -8.5933   27.9644 C   0  0  0  0  0  0  0  0  0  0  0  0
   -2.3870  -12.8440   19.2512 C   0  0  0  0  0  0  0  0  0  0  0  0
    0.5331   -7.6964   16.2751 C   0  0  0  0  0  0  0  0  0  0  0  0
   -0.6740  -10.8737   18.0482 C   0  0  0  0  0  0  0  0  0  0  0  0
    5.6751  -10.5870   29.7637 O   0  0  0  0  0  0  0  0  0  0  0  0
    1.7612   -5.6483   26.7172 C   0  0  0  0  0  0  0  0  0  0  0  0
    0.2221   -9.8326   17.4055 C   0  0  0  0  0  0  0  0  0  0  0  0
    4.3850   -9.0730   28.6745 C   0  0  0  0  0  0  0  0  0  0  0  0
  1  7  4  0
  1 22  4  0
  2 17  4  0
  2 20  4  0
  2 28  4  0
  3  6  1  0
  3 19  1  0
  4 19  1  0
  4 26  1  0
  5 17  4  0
  5 18  4  0
  6 20  1  0
  6 26  1  0
  7 24  4  0
  8 15  4  0
  8 24  4  0
  9 14  4  0
  9 21  4  0
 10 12  4  0
 10 27  4  0
 11 12  4  0
 11 23  4  0
 13 23  4  0
 13 27  4  0
 14 20  4  0
 15 22  4  0
 16 18  4  0
 16 25  2  0
 16 28  4  0
 21 28  4  0
 24 27  1  0
M  END
$$$$

 Created by Python create_sdf_string function

 28 31  0  0  0  0  0  0  0  0999 V2000
   -1.0054  -13.0622   19.1198 C   0  0  0  0  0  0  0  0  0  0  0  0
    3.1478   -8.5360   28.5161 C   0  0  0  0  0  0  0  0  0  0  0  0
    0.5798   -7.1906   27.9330 C   0  0  0  0  0  0  0  0  0  0  0  0
    0.3978   -5.1561   26.6955 C   0  0  0  0  0  0  0  0  0  0  0  0
    2.3063  -10.0533   30.0125 C   0  0  0  0  0  0  0  0  0  0  0  0
    1.8591   -6.8254   27.4685 N   0  0  0  0  0  0  0  0  0  0  0  0
   -0.2167  -12.1055   18.5568 C   0  0  0  0  0  0  0  0  0  0  0  0
   -2.0661  -10.6994   18.1916 C   0  0  0  0  0  0  0  0  0  0  0  0
    5.2703   -7.5691   27.1123 C   0  0  0  0  0  0  0  0  0  0  0  0
    1.6204   -9.9887   17.2935 C   0  0  0  0  0  0  0  0  0  0  0  0
    1.8931   -7.9265   16.2047 C   0  0  0  0  0  0  0  0  0  0  0  0
    2.4396   -9.0801   16.7132 C   0  0  0  0  0  0  0  0  0  0  0  0
   -0.2575   -8.6234   16.8582 C   0  0  0  0  0  0  0  0  0  0  0  0
    4.0614   -7.0367   27.0106 N   0  0  0  0  0  0  0  0  0  0  0  0
   -2.9133  -11.6279   18.7578 C   0  0  0  0  0  0  0  0  0  0  0  0
    4.5688  -10.1291   29.5758 C   0  0  0  0  0  0  0  0  0  0  0  0
    2.1008   -9.0410   29.1852 N   0  0  0  0  0  0  0  0  0  0  0  0
    3.4829  -10.5697   30.2091 N   0  0  0  0  0  0  0  0  0  0  0  0
   -0.3363   -6.1172   27.5628 C   0  0  0  0  0  0  0  0  0  0  0  0
    3.0331   -7.4400   27.6362 C   0  0  0  0  0  0  0  0  0  0  0  0
    5.4553   -8.5933   27.9644 C   0  0  0  0  0  0  0  0  0  0  0  0
   -2.3870  -12.8440   19.2512 C   0  0  0  0  0  0  0  0  0  0  0  0
    0.5331   -7.6964   16.2751 C   0  0  0  0  0  0  0  0  0  0  0  0
   -0.6740  -10.8737   18.0482 C   0  0  0  0  0  0  0  0  0  0  0  0
    5.6751  -10.5870   29.7637 O   0  0  0  0  0  0  0  0  0  0  0  0
    1.7612   -5.6483   26.7172 C   0  0  0  0  0  0  0  0  0  0  0  0
    0.2221   -9.8326   17.4055 C   0  0  0  0  0  0  0  0  0  0  0  0
    4.3850   -9.0730   28.6745 C   0  0  0  0  0  0  0  0  0  0  0  0
  1  7  4  0
  1 22  4  0
  2 17  4  0
  2 20  4  0
  2 28  4  0
  3  6  1  0
  3 19  1  0
  4 19  1  0
  4 26  1  0
  5 17  4  0
  5 18  4  0
  6 20  1  0
  6 26  1  0
  7 24  4  0
  8 15  4  0
  8 24  4  0
  9 14  4  0
  9 21  4  0
 10 12  4  0
 10 27  4  0
 11 12  4  0
 11 23  4  0
 13 23  4  0
 13 27  4  0
 14 20  4  0
 15 22  4  0
 16 18  4  0
 16 25  2  0
 16 28  4  0
 21 28  4  0
 24 27  1  0
M  END
$$$$

 Created by Python create_sdf_string function

 28 31  0  0  0  0  0  0  0  0999 V2000
   -1.0054  -13.0622   19.1198 C   0  0  0  0  0  0  0  0  0  0  0  0
    3.1478   -8.5360   28.5161 C   0  0  0  0  0  0  0  0  0  0  0  0
    0.5798   -7.1906   27.9330 C   0  0  0  0  0  0  0  0  0  0  0  0
    0.3978   -5.1561   26.6955 C   0  0  0  0  0  0  0  0  0  0  0  0
    2.3063  -10.0533   30.0125 C   0  0  0  0  0  0  0  0  0  0  0  0
    1.8591   -6.8254   27.4685 N   0  0  0  0  0  0  0  0  0  0  0  0
   -0.2167  -12.1055   18.5568 C   0  0  0  0  0  0  0  0  0  0  0  0
   -2.0661  -10.6994   18.1916 C   0  0  0  0  0  0  0  0  0  0  0  0
    5.2703   -7.5691   27.1123 C   0  0  0  0  0  0  0  0  0  0  0  0
    1.6204   -9.9887   17.2935 C   0  0  0  0  0  0  0  0  0  0  0  0
    1.8931   -7.9265   16.2047 C   0  0  0  0  0  0  0  0  0  0  0  0
    2.4396   -9.0801   16.7132 C   0  0  0  0  0  0  0  0  0  0  0  0
   -0.2575   -8.6234   16.8582 C   0  0  0  0  0  0  0  0  0  0  0  0
    4.0614   -7.0367   27.0106 N   0  0  0  0  0  0  0  0  0  0  0  0
   -2.9133  -11.6279   18.7578 C   0  0  0  0  0  0  0  0  0  0  0  0
    4.5688  -10.1291   29.5758 C   0  0  0  0  0  0  0  0  0  0  0  0
    2.1008   -9.0410   29.1852 N   0  0  0  0  0  0  0  0  0  0  0  0
    3.4829  -10.5697   30.2091 N   0  0  0  0  0  0  0  0  0  0  0  0
   -0.3363   -6.1172   27.5628 C   0  0  0  0  0  0  0  0  0  0  0  0
    3.0331   -7.4400   27.6362 C   0  0  0  0  0  0  0  0  0  0  0  0
    5.4553   -8.5933   27.9644 C   0  0  0  0  0  0  0  0  0  0  0  0
   -2.3870  -12.8440   19.2512 C   0  0  0  0  0  0  0  0  0  0  0  0
    0.5331   -7.6964   16.2751 C   0  0  0  0  0  0  0  0  0  0  0  0
   -0.6740  -10.8737   18.0482 C   0  0  0  0  0  0  0  0  0  0  0  0
    5.6751  -10.5870   29.7637 O   0  0  0  0  0  0  0  0  0  0  0  0
    1.7612   -5.6483   26.7172 C   0  0  0  0  0  0  0  0  0  0  0  0
    0.2221   -9.8326   17.4055 C   0  0  0  0  0  0  0  0  0  0  0  0
    4.3850   -9.0730   28.6745 C   0  0  0  0  0  0  0  0  0  0  0  0
  1  7  4  0
  1 22  4  0
  2 17  4  0
  2 20  4  0
  2 28  4  0
  3  6  1  0
  3 19  1  0
  4 19  1  0
  4 26  1  0
  5 17  4  0
  5 18  4  0
  6 20  1  0
  6 26  1  0
  7 24  4  0
  8 15  4  0
  8 24  4  0
  9 14  4  0
  9 21  4  0
 10 12  4  0
 10 27  4  0
 11 12  4  0
 11 23  4  0
 13 23  4  0
 13 27  4  0
 14 20  4  0
 15 22  4  0
 16 18  4  0
 16 25  2  0
 16 28  4  0
 21 28  4  0
 24 27  1  0
M  END
$$$$

 Created by Python create_sdf_string function

 28 31  0  0  0  0  0  0  0  0999 V2000
   -1.0054  -13.0622   19.1198 C   0  0  0  0  0  0  0  0  0  0  0  0
    3.1478   -8.5360   28.5161 C   0  0  0  0  0  0  0  0  0  0  0  0
    0.5798   -7.1906   27.9330 C   0  0  0  0  0  0  0  0  0  0  0  0
    0.3978   -5.1561   26.6955 C   0  0  0  0  0  0  0  0  0  0  0  0
    2.3063  -10.0533   30.0125 C   0  0  0  0  0  0  0  0  0  0  0  0
    1.8591   -6.8254   27.4685 N   0  0  0  0  0  0  0  0  0  0  0  0
   -0.2167  -12.1055   18.5568 C   0  0  0  0  0  0  0  0  0  0  0  0
   -2.0661  -10.6994   18.1916 C   0  0  0  0  0  0  0  0  0  0  0  0
    5.2703   -7.5691   27.1123 C   0  0  0  0  0  0  0  0  0  0  0  0
    1.6204   -9.9887   17.2935 C   0  0  0  0  0  0  0  0  0  0  0  0
    1.8931   -7.9265   16.2047 C   0  0  0  0  0  0  0  0  0  0  0  0
    2.4396   -9.0801   16.7132 C   0  0  0  0  0  0  0  0  0  0  0  0
   -0.2575   -8.6234   16.8582 C   0  0  0  0  0  0  0  0  0  0  0  0
    4.0614   -7.0367   27.0106 N   0  0  0  0  0  0  0  0  0  0  0  0
   -2.9133  -11.6279   18.7578 C   0  0  0  0  0  0  0  0  0  0  0  0
    4.5688  -10.1291   29.5758 C   0  0  0  0  0  0  0  0  0  0  0  0
    2.1008   -9.0410   29.1852 N   0  0  0  0  0  0  0  0  0  0  0  0
    3.4829  -10.5697   30.2091 N   0  0  0  0  0  0  0  0  0  0  0  0
   -0.3363   -6.1172   27.5628 C   0  0  0  0  0  0  0  0  0  0  0  0
    3.0331   -7.4400   27.6362 C   0  0  0  0  0  0  0  0  0  0  0  0
    5.4553   -8.5933   27.9644 C   0  0  0  0  0  0  0  0  0  0  0  0
   -2.3870  -12.8440   19.2512 C   0  0  0  0  0  0  0  0  0  0  0  0
    0.5331   -7.6964   16.2751 C   0  0  0  0  0  0  0  0  0  0  0  0
   -0.6740  -10.8737   18.0482 C   0  0  0  0  0  0  0  0  0  0  0  0
    5.6751  -10.5870   29.7637 O   0  0  0  0  0  0  0  0  0  0  0  0
    1.7612   -5.6483   26.7172 C   0  0  0  0  0  0  0  0  0  0  0  0
    0.2221   -9.8326   17.4055 C   0  0  0  0  0  0  0  0  0  0  0  0
    4.3850   -9.0730   28.6745 C   0  0  0  0  0  0  0  0  0  0  0  0
  1  7  4  0
  1 22  4  0
  2 17  4  0
  2 20  4  0
  2 28  4  0
  3  6  1  0
  3 19  1  0
  4 19  1  0
  4 26  1  0
  5 17  4  0
  5 18  4  0
  6 20  1  0
  6 26  1  0
  7 24  4  0
  8 15  4  0
  8 24  4  0
  9 14  4  0
  9 21  4  0
 10 12  4  0
 10 27  4  0
 11 12  4  0
 11 23  4  0
 13 23  4  0
 13 27  4  0
 14 20  4  0
 15 22  4  0
 16 18  4  0
 16 25  2  0
 16 28  4  0
 21 28  4  0
 24 27  1  0
M  END
$$$$

 Created by Python create_sdf_string function

 28 31  0  0  0  0  0  0  0  0999 V2000
   -1.0054  -13.0622   19.1198 C   0  0  0  0  0  0  0  0  0  0  0  0
    3.1478   -8.5360   28.5161 C   0  0  0  0  0  0  0  0  0  0  0  0
    0.5798   -7.1906   27.9330 C   0  0  0  0  0  0  0  0  0  0  0  0
    0.3978   -5.1561   26.6955 C   0  0  0  0  0  0  0  0  0  0  0  0
    2.3063  -10.0533   30.0125 C   0  0  0  0  0  0  0  0  0  0  0  0
    1.8591   -6.8254   27.4685 N   0  0  0  0  0  0  0  0  0  0  0  0
   -0.2167  -12.1055   18.5568 C   0  0  0  0  0  0  0  0  0  0  0  0
   -2.0661  -10.6994   18.1916 C   0  0  0  0  0  0  0  0  0  0  0  0
    5.2703   -7.5691   27.1123 C   0  0  0  0  0  0  0  0  0  0  0  0
    1.6204   -9.9887   17.2935 C   0  0  0  0  0  0  0  0  0  0  0  0
    1.8931   -7.9265   16.2047 C   0  0  0  0  0  0  0  0  0  0  0  0
    2.4396   -9.0801   16.7132 C   0  0  0  0  0  0  0  0  0  0  0  0
   -0.2575   -8.6234   16.8582 C   0  0  0  0  0  0  0  0  0  0  0  0
    4.0614   -7.0367   27.0106 N   0  0  0  0  0  0  0  0  0  0  0  0
   -2.9133  -11.6279   18.7578 C   0  0  0  0  0  0  0  0  0  0  0  0
    4.5688  -10.1291   29.5758 C   0  0  0  0  0  0  0  0  0  0  0  0
    2.1008   -9.0410   29.1852 N   0  0  0  0  0  0  0  0  0  0  0  0
    3.4829  -10.5697   30.2091 N   0  0  0  0  0  0  0  0  0  0  0  0
   -0.3363   -6.1172   27.5628 C   0  0  0  0  0  0  0  0  0  0  0  0
    3.0331   -7.4400   27.6362 C   0  0  0  0  0  0  0  0  0  0  0  0
    5.4553   -8.5933   27.9644 C   0  0  0  0  0  0  0  0  0  0  0  0
   -2.3870  -12.8440   19.2512 C   0  0  0  0  0  0  0  0  0  0  0  0
    0.5331   -7.6964   16.2751 C   0  0  0  0  0  0  0  0  0  0  0  0
   -0.6740  -10.8737   18.0482 C   0  0  0  0  0  0  0  0  0  0  0  0
    5.6751  -10.5870   29.7637 O   0  0  0  0  0  0  0  0  0  0  0  0
    1.7612   -5.6483   26.7172 C   0  0  0  0  0  0  0  0  0  0  0  0
    0.2221   -9.8326   17.4055 C   0  0  0  0  0  0  0  0  0  0  0  0
    4.3850   -9.0730   28.6745 C   0  0  0  0  0  0  0  0  0  0  0  0
  1  7  4  0
  1 22  4  0
  2 17  4  0
  2 20  4  0
  2 28  4  0
  3  6  1  0
  3 19  1  0
  4 19  1  0
  4 26  1  0
  5 17  4  0
  5 18  4  0
  6 20  1  0
  6 26  1  0
  7 24  4  0
  8 15  4  0
  8 24  4  0
  9 14  4  0
  9 21  4  0
 10 12  4  0
 10 27  4  0
 11 12  4  0
 11 23  4  0
 13 23  4  0
 13 27  4  0
 14 20  4  0
 15 22  4  0
 16 18  4  0
 16 25  2  0
 16 28  4  0
 21 28  4  0
 24 27  1  0
M  END
$$$$

 Created by Python create_sdf_string function

 28 31  0  0  0  0  0  0  0  0999 V2000
   -1.0054  -13.0622   19.1198 C   0  0  0  0  0  0  0  0  0  0  0  0
    3.1478   -8.5360   28.5161 C   0  0  0  0  0  0  0  0  0  0  0  0
    0.5798   -7.1906   27.9330 C   0  0  0  0  0  0  0  0  0  0  0  0
    0.3978   -5.1561   26.6955 C   0  0  0  0  0  0  0  0  0  0  0  0
    2.3063  -10.0533   30.0125 C   0  0  0  0  0  0  0  0  0  0  0  0
    1.8591   -6.8254   27.4685 N   0  0  0  0  0  0  0  0  0  0  0  0
   -0.2167  -12.1055   18.5568 C   0  0  0  0  0  0  0  0  0  0  0  0
   -2.0661  -10.6994   18.1916 C   0  0  0  0  0  0  0  0  0  0  0  0
    5.2703   -7.5691   27.1123 C   0  0  0  0  0  0  0  0  0  0  0  0
    1.6204   -9.9887   17.2935 C   0  0  0  0  0  0  0  0  0  0  0  0
    1.8931   -7.9265   16.2047 C   0  0  0  0  0  0  0  0  0  0  0  0
    2.4396   -9.0801   16.7132 C   0  0  0  0  0  0  0  0  0  0  0  0
   -0.2575   -8.6234   16.8582 C   0  0  0  0  0  0  0  0  0  0  0  0
    4.0614   -7.0367   27.0106 N   0  0  0  0  0  0  0  0  0  0  0  0
   -2.9133  -11.6279   18.7578 C   0  0  0  0  0  0  0  0  0  0  0  0
    4.5688  -10.1291   29.5758 C   0  0  0  0  0  0  0  0  0  0  0  0
    2.1008   -9.0410   29.1852 N   0  0  0  0  0  0  0  0  0  0  0  0
    3.4829  -10.5697   30.2091 N   0  0  0  0  0  0  0  0  0  0  0  0
   -0.3363   -6.1172   27.5628 C   0  0  0  0  0  0  0  0  0  0  0  0
    3.0331   -7.4400   27.6362 C   0  0  0  0  0  0  0  0  0  0  0  0
    5.4553   -8.5933   27.9644 C   0  0  0  0  0  0  0  0  0  0  0  0
   -2.3870  -12.8440   19.2512 C   0  0  0  0  0  0  0  0  0  0  0  0
    0.5331   -7.6964   16.2751 C   0  0  0  0  0  0  0  0  0  0  0  0
   -0.6740  -10.8737   18.0482 C   0  0  0  0  0  0  0  0  0  0  0  0
    5.6751  -10.5870   29.7637 O   0  0  0  0  0  0  0  0  0  0  0  0
    1.7612   -5.6483   26.7172 C   0  0  0  0  0  0  0  0  0  0  0  0
    0.2221   -9.8326   17.4055 C   0  0  0  0  0  0  0  0  0  0  0  0
    4.3850   -9.0730   28.6745 C   0  0  0  0  0  0  0  0  0  0  0  0
  1  7  4  0
  1 22  4  0
  2 17  4  0
  2 20  4  0
  2 28  4  0
  3  6  1  0
  3 19  1  0
  4 19  1  0
  4 26  1  0
  5 17  4  0
  5 18  4  0
  6 20  1  0
  6 26  1  0
  7 24  4  0
  8 15  4  0
  8 24  4  0
  9 14  4  0
  9 21  4  0
 10 12  4  0
 10 27  4  0
 11 12  4  0
 11 23  4  0
 13 23  4  0
 13 27  4  0
 14 20  4  0
 15 22  4  0
 16 18  4  0
 16 25  2  0
 16 28  4  0
 21 28  4  0
 24 27  1  0
M  END
$$$$

 Created by Python create_sdf_string function

 28 31  0  0  0  0  0  0  0  0999 V2000
   -1.0054  -13.0622   19.1198 C   0  0  0  0  0  0  0  0  0  0  0  0
    3.1478   -8.5360   28.5161 C   0  0  0  0  0  0  0  0  0  0  0  0
    0.5798   -7.1906   27.9330 C   0  0  0  0  0  0  0  0  0  0  0  0
    0.3978   -5.1561   26.6955 C   0  0  0  0  0  0  0  0  0  0  0  0
    2.3063  -10.0533   30.0125 C   0  0  0  0  0  0  0  0  0  0  0  0
    1.8591   -6.8254   27.4685 N   0  0  0  0  0  0  0  0  0  0  0  0
   -0.2167  -12.1055   18.5568 C   0  0  0  0  0  0  0  0  0  0  0  0
   -2.0661  -10.6994   18.1916 C   0  0  0  0  0  0  0  0  0  0  0  0
    5.2703   -7.5691   27.1123 C   0  0  0  0  0  0  0  0  0  0  0  0
    1.6204   -9.9887   17.2935 C   0  0  0  0  0  0  0  0  0  0  0  0
    1.8931   -7.9265   16.2047 C   0  0  0  0  0  0  0  0  0  0  0  0
    2.4396   -9.0801   16.7132 C   0  0  0  0  0  0  0  0  0  0  0  0
   -0.2575   -8.6234   16.8582 C   0  0  0  0  0  0  0  0  0  0  0  0
    4.0614   -7.0367   27.0106 N   0  0  0  0  0  0  0  0  0  0  0  0
   -2.9133  -11.6279   18.7578 C   0  0  0  0  0  0  0  0  0  0  0  0
    4.5688  -10.1291   29.5758 C   0  0  0  0  0  0  0  0  0  0  0  0
    2.1008   -9.0410   29.1852 N   0  0  0  0  0  0  0  0  0  0  0  0
    3.4829  -10.5697   30.2091 N   0  0  0  0  0  0  0  0  0  0  0  0
   -0.3363   -6.1172   27.5628 C   0  0  0  0  0  0  0  0  0  0  0  0
    3.0331   -7.4400   27.6362 C   0  0  0  0  0  0  0  0  0  0  0  0
    5.4553   -8.5933   27.9644 C   0  0  0  0  0  0  0  0  0  0  0  0
   -2.3870  -12.8440   19.2512 C   0  0  0  0  0  0  0  0  0  0  0  0
    0.5331   -7.6964   16.2751 C   0  0  0  0  0  0  0  0  0  0  0  0
   -0.6740  -10.8737   18.0482 C   0  0  0  0  0  0  0  0  0  0  0  0
    5.6751  -10.5870   29.7637 O   0  0  0  0  0  0  0  0  0  0  0  0
    1.7612   -5.6483   26.7172 C   0  0  0  0  0  0  0  0  0  0  0  0
    0.2221   -9.8326   17.4055 C   0  0  0  0  0  0  0  0  0  0  0  0
    4.3850   -9.0730   28.6745 C   0  0  0  0  0  0  0  0  0  0  0  0
  1  7  4  0
  1 22  4  0
  2 17  4  0
  2 20  4  0
  2 28  4  0
  3  6  1  0
  3 19  1  0
  4 19  1  0
  4 26  1  0
  5 17  4  0
  5 18  4  0
  6 20  1  0
  6 26  1  0
  7 24  4  0
  8 15  4  0
  8 24  4  0
  9 14  4  0
  9 21  4  0
 10 12  4  0
 10 27  4  0
 11 12  4  0
 11 23  4  0
 13 23  4  0
 13 27  4  0
 14 20  4  0
 15 22  4  0
 16 18  4  0
 16 25  2  0
 16 28  4  0
 21 28  4  0
 24 27  1  0
M  END
$$$$

 Created by Python create_sdf_string function

 28 31  0  0  0  0  0  0  0  0999 V2000
   -1.0054  -13.0622   19.1198 C   0  0  0  0  0  0  0  0  0  0  0  0
    3.1478   -8.5360   28.5161 C   0  0  0  0  0  0  0  0  0  0  0  0
    0.5798   -7.1906   27.9330 C   0  0  0  0  0  0  0  0  0  0  0  0
    0.3978   -5.1561   26.6955 C   0  0  0  0  0  0  0  0  0  0  0  0
    2.3063  -10.0533   30.0125 C   0  0  0  0  0  0  0  0  0  0  0  0
    1.8591   -6.8254   27.4685 N   0  0  0  0  0  0  0  0  0  0  0  0
   -0.2167  -12.1055   18.5568 C   0  0  0  0  0  0  0  0  0  0  0  0
   -2.0661  -10.6994   18.1916 C   0  0  0  0  0  0  0  0  0  0  0  0
    5.2703   -7.5691   27.1123 C   0  0  0  0  0  0  0  0  0  0  0  0
    1.6204   -9.9887   17.2935 C   0  0  0  0  0  0  0  0  0  0  0  0
    1.8931   -7.9265   16.2047 C   0  0  0  0  0  0  0  0  0  0  0  0
    2.4396   -9.0801   16.7132 C   0  0  0  0  0  0  0  0  0  0  0  0
   -0.2575   -8.6234   16.8582 C   0  0  0  0  0  0  0  0  0  0  0  0
    4.0614   -7.0367   27.0106 N   0  0  0  0  0  0  0  0  0  0  0  0
   -2.9133  -11.6279   18.7578 C   0  0  0  0  0  0  0  0  0  0  0  0
    4.5688  -10.1291   29.5758 C   0  0  0  0  0  0  0  0  0  0  0  0
    2.1008   -9.0410   29.1852 N   0  0  0  0  0  0  0  0  0  0  0  0
    3.4829  -10.5697   30.2091 N   0  0  0  0  0  0  0  0  0  0  0  0
   -0.3363   -6.1172   27.5628 C   0  0  0  0  0  0  0  0  0  0  0  0
    3.0331   -7.4400   27.6362 C   0  0  0  0  0  0  0  0  0  0  0  0
    5.4553   -8.5933   27.9644 C   0  0  0  0  0  0  0  0  0  0  0  0
   -2.3870  -12.8440   19.2512 C   0  0  0  0  0  0  0  0  0  0  0  0
    0.5331   -7.6964   16.2751 C   0  0  0  0  0  0  0  0  0  0  0  0
   -0.6740  -10.8737   18.0482 C   0  0  0  0  0  0  0  0  0  0  0  0
    5.6751  -10.5870   29.7637 O   0  0  0  0  0  0  0  0  0  0  0  0
    1.7612   -5.6483   26.7172 C   0  0  0  0  0  0  0  0  0  0  0  0
    0.2221   -9.8326   17.4055 C   0  0  0  0  0  0  0  0  0  0  0  0
    4.3850   -9.0730   28.6745 C   0  0  0  0  0  0  0  0  0  0  0  0
  1  7  4  0
  1 22  4  0
  2 17  4  0
  2 20  4  0
  2 28  4  0
  3  6  1  0
  3 19  1  0
  4 19  1  0
  4 26  1  0
  5 17  4  0
  5 18  4  0
  6 20  1  0
  6 26  1  0
  7 24  4  0
  8 15  4  0
  8 24  4  0
  9 14  4  0
  9 21  4  0
 10 12  4  0
 10 27  4  0
 11 12  4  0
 11 23  4  0
 13 23  4  0
 13 27  4  0
 14 20  4  0
 15 22  4  0
 16 18  4  0
 16 25  2  0
 16 28  4  0
 21 28  4  0
 24 27  1  0
M  END
$$$$

 Created by Python create_sdf_string function

 28 31  0  0  0  0  0  0  0  0999 V2000
   -1.0054  -13.0622   19.1198 C   0  0  0  0  0  0  0  0  0  0  0  0
    3.1478   -8.5360   28.5161 C   0  0  0  0  0  0  0  0  0  0  0  0
    0.5798   -7.1906   27.9330 C   0  0  0  0  0  0  0  0  0  0  0  0
    0.3978   -5.1561   26.6955 C   0  0  0  0  0  0  0  0  0  0  0  0
    2.3063  -10.0533   30.0125 C   0  0  0  0  0  0  0  0  0  0  0  0
    1.8591   -6.8254   27.4685 N   0  0  0  0  0  0  0  0  0  0  0  0
   -0.2167  -12.1055   18.5568 C   0  0  0  0  0  0  0  0  0  0  0  0
   -2.0661  -10.6994   18.1916 C   0  0  0  0  0  0  0  0  0  0  0  0
    5.2703   -7.5691   27.1123 C   0  0  0  0  0  0  0  0  0  0  0  0
    1.6204   -9.9887   17.2935 C   0  0  0  0  0  0  0  0  0  0  0  0
    1.8931   -7.9265   16.2047 C   0  0  0  0  0  0  0  0  0  0  0  0
    2.4396   -9.0801   16.7132 C   0  0  0  0  0  0  0  0  0  0  0  0
   -0.2575   -8.6234   16.8582 C   0  0  0  0  0  0  0  0  0  0  0  0
    4.0614   -7.0367   27.0106 N   0  0  0  0  0  0  0  0  0  0  0  0
   -2.9133  -11.6279   18.7578 C   0  0  0  0  0  0  0  0  0  0  0  0
    4.5688  -10.1291   29.5758 C   0  0  0  0  0  0  0  0  0  0  0  0
    2.1008   -9.0410   29.1852 N   0  0  0  0  0  0  0  0  0  0  0  0
    3.4829  -10.5697   30.2091 N   0  0  0  0  0  0  0  0  0  0  0  0
   -0.3363   -6.1172   27.5628 C   0  0  0  0  0  0  0  0  0  0  0  0
    3.0331   -7.4400   27.6362 C   0  0  0  0  0  0  0  0  0  0  0  0
    5.4553   -8.5933   27.9644 C   0  0  0  0  0  0  0  0  0  0  0  0
   -2.3870  -12.8440   19.2512 C   0  0  0  0  0  0  0  0  0  0  0  0
    0.5331   -7.6964   16.2751 C   0  0  0  0  0  0  0  0  0  0  0  0
   -0.6740  -10.8737   18.0482 C   0  0  0  0  0  0  0  0  0  0  0  0
    5.6751  -10.5870   29.7637 O   0  0  0  0  0  0  0  0  0  0  0  0
    1.7612   -5.6483   26.7172 C   0  0  0  0  0  0  0  0  0  0  0  0
    0.2221   -9.8326   17.4055 C   0  0  0  0  0  0  0  0  0  0  0  0
    4.3850   -9.0730   28.6745 C   0  0  0  0  0  0  0  0  0  0  0  0
  1  7  4  0
  1 22  4  0
  2 17  4  0
  2 20  4  0
  2 28  4  0
  3  6  1  0
  3 19  1  0
  4 19  1  0
  4 26  1  0
  5 17  4  0
  5 18  4  0
  6 20  1  0
  6 26  1  0
  7 24  4  0
  8 15  4  0
  8 24  4  0
  9 14  4  0
  9 21  4  0
 10 12  4  0
 10 27  4  0
 11 12  4  0
 11 23  4  0
 13 23  4  0
 13 27  4  0
 14 20  4  0
 15 22  4  0
 16 18  4  0
 16 25  2  0
 16 28  4  0
 21 28  4  0
 24 27  1  0
M  END
$$$$

 Created by Python create_sdf_string function

 28 31  0  0  0  0  0  0  0  0999 V2000
   -1.0054  -13.0622   19.1198 C   0  0  0  0  0  0  0  0  0  0  0  0
    3.1478   -8.5360   28.5161 C   0  0  0  0  0  0  0  0  0  0  0  0
    0.5798   -7.1906   27.9330 C   0  0  0  0  0  0  0  0  0  0  0  0
    0.3978   -5.1561   26.6955 C   0  0  0  0  0  0  0  0  0  0  0  0
    2.3063  -10.0533   30.0125 C   0  0  0  0  0  0  0  0  0  0  0  0
    1.8591   -6.8254   27.4685 N   0  0  0  0  0  0  0  0  0  0  0  0
   -0.2167  -12.1055   18.5568 C   0  0  0  0  0  0  0  0  0  0  0  0
   -2.0661  -10.6994   18.1916 C   0  0  0  0  0  0  0  0  0  0  0  0
    5.2703   -7.5691   27.1123 C   0  0  0  0  0  0  0  0  0  0  0  0
    1.6204   -9.9887   17.2935 C   0  0  0  0  0  0  0  0  0  0  0  0
    1.8931   -7.9265   16.2047 C   0  0  0  0  0  0  0  0  0  0  0  0
    2.4396   -9.0801   16.7132 C   0  0  0  0  0  0  0  0  0  0  0  0
   -0.2575   -8.6234   16.8582 C   0  0  0  0  0  0  0  0  0  0  0  0
    4.0614   -7.0367   27.0106 N   0  0  0  0  0  0  0  0  0  0  0  0
   -2.9133  -11.6279   18.7578 C   0  0  0  0  0  0  0  0  0  0  0  0
    4.5688  -10.1291   29.5758 C   0  0  0  0  0  0  0  0  0  0  0  0
    2.1008   -9.0410   29.1852 N   0  0  0  0  0  0  0  0  0  0  0  0
    3.4829  -10.5697   30.2091 N   0  0  0  0  0  0  0  0  0  0  0  0
   -0.3363   -6.1172   27.5628 C   0  0  0  0  0  0  0  0  0  0  0  0
    3.0331   -7.4400   27.6362 C   0  0  0  0  0  0  0  0  0  0  0  0
    5.4553   -8.5933   27.9644 C   0  0  0  0  0  0  0  0  0  0  0  0
   -2.3870  -12.8440   19.2512 C   0  0  0  0  0  0  0  0  0  0  0  0
    0.5331   -7.6964   16.2751 C   0  0  0  0  0  0  0  0  0  0  0  0
   -0.6740  -10.8737   18.0482 C   0  0  0  0  0  0  0  0  0  0  0  0
    5.6751  -10.5870   29.7637 O   0  0  0  0  0  0  0  0  0  0  0  0
    1.7612   -5.6483   26.7172 C   0  0  0  0  0  0  0  0  0  0  0  0
    0.2221   -9.8326   17.4055 C   0  0  0  0  0  0  0  0  0  0  0  0
    4.3850   -9.0730   28.6745 C   0  0  0  0  0  0  0  0  0  0  0  0
  1  7  4  0
  1 22  4  0
  2 17  4  0
  2 20  4  0
  2 28  4  0
  3  6  1  0
  3 19  1  0
  4 19  1  0
  4 26  1  0
  5 17  4  0
  5 18  4  0
  6 20  1  0
  6 26  1  0
  7 24  4  0
  8 15  4  0
  8 24  4  0
  9 14  4  0
  9 21  4  0
 10 12  4  0
 10 27  4  0
 11 12  4  0
 11 23  4  0
 13 23  4  0
 13 27  4  0
 14 20  4  0
 15 22  4  0
 16 18  4  0
 16 25  2  0
 16 28  4  0
 21 28  4  0
 24 27  1  0
M  END
$$$$

 Created by Python create_sdf_string function

 28 31  0  0  0  0  0  0  0  0999 V2000
   -1.0054  -13.0622   19.1198 C   0  0  0  0  0  0  0  0  0  0  0  0
    3.1478   -8.5360   28.5161 C   0  0  0  0  0  0  0  0  0  0  0  0
    0.5798   -7.1906   27.9330 C   0  0  0  0  0  0  0  0  0  0  0  0
    0.3978   -5.1561   26.6955 C   0  0  0  0  0  0  0  0  0  0  0  0
    2.3063  -10.0533   30.0125 C   0  0  0  0  0  0  0  0  0  0  0  0
    1.8591   -6.8254   27.4685 N   0  0  0  0  0  0  0  0  0  0  0  0
   -0.2167  -12.1055   18.5568 C   0  0  0  0  0  0  0  0  0  0  0  0
   -2.0661  -10.6994   18.1916 C   0  0  0  0  0  0  0  0  0  0  0  0
    5.2703   -7.5691   27.1123 C   0  0  0  0  0  0  0  0  0  0  0  0
    1.6204   -9.9887   17.2935 C   0  0  0  0  0  0  0  0  0  0  0  0
    1.8931   -7.9265   16.2047 C   0  0  0  0  0  0  0  0  0  0  0  0
    2.4396   -9.0801   16.7132 C   0  0  0  0  0  0  0  0  0  0  0  0
   -0.2575   -8.6234   16.8582 C   0  0  0  0  0  0  0  0  0  0  0  0
    4.0614   -7.0367   27.0106 N   0  0  0  0  0  0  0  0  0  0  0  0
   -2.9133  -11.6279   18.7578 C   0  0  0  0  0  0  0  0  0  0  0  0
    4.5688  -10.1291   29.5758 C   0  0  0  0  0  0  0  0  0  0  0  0
    2.1008   -9.0410   29.1852 N   0  0  0  0  0  0  0  0  0  0  0  0
    3.4829  -10.5697   30.2091 N   0  0  0  0  0  0  0  0  0  0  0  0
   -0.3363   -6.1172   27.5628 C   0  0  0  0  0  0  0  0  0  0  0  0
    3.0331   -7.4400   27.6362 C   0  0  0  0  0  0  0  0  0  0  0  0
    5.4553   -8.5933   27.9644 C   0  0  0  0  0  0  0  0  0  0  0  0
   -2.3870  -12.8440   19.2512 C   0  0  0  0  0  0  0  0  0  0  0  0
    0.5331   -7.6964   16.2751 C   0  0  0  0  0  0  0  0  0  0  0  0
   -0.6740  -10.8737   18.0482 C   0  0  0  0  0  0  0  0  0  0  0  0
    5.6751  -10.5870   29.7637 O   0  0  0  0  0  0  0  0  0  0  0  0
    1.7612   -5.6483   26.7172 C   0  0  0  0  0  0  0  0  0  0  0  0
    0.2221   -9.8326   17.4055 C   0  0  0  0  0  0  0  0  0  0  0  0
    4.3850   -9.0730   28.6745 C   0  0  0  0  0  0  0  0  0  0  0  0
  1  7  4  0
  1 22  4  0
  2 17  4  0
  2 20  4  0
  2 28  4  0
  3  6  1  0
  3 19  1  0
  4 19  1  0
  4 26  1  0
  5 17  4  0
  5 18  4  0
  6 20  1  0
  6 26  1  0
  7 24  4  0
  8 15  4  0
  8 24  4  0
  9 14  4  0
  9 21  4  0
 10 12  4  0
 10 27  4  0
 11 12  4  0
 11 23  4  0
 13 23  4  0
 13 27  4  0
 14 20  4  0
 15 22  4  0
 16 18  4  0
 16 25  2  0
 16 28  4  0
 21 28  4  0
 24 27  1  0
M  END
$$$$

 Created by Python create_sdf_string function

 28 31  0  0  0  0  0  0  0  0999 V2000
   -1.0054  -13.0622   19.1198 C   0  0  0  0  0  0  0  0  0  0  0  0
    3.1478   -8.5360   28.5161 C   0  0  0  0  0  0  0  0  0  0  0  0
    0.5798   -7.1906   27.9330 C   0  0  0  0  0  0  0  0  0  0  0  0
    0.3978   -5.1561   26.6955 C   0  0  0  0  0  0  0  0  0  0  0  0
    2.3063  -10.0533   30.0125 C   0  0  0  0  0  0  0  0  0  0  0  0
    1.8591   -6.8254   27.4685 N   0  0  0  0  0  0  0  0  0  0  0  0
   -0.2167  -12.1055   18.5568 C   0  0  0  0  0  0  0  0  0  0  0  0
   -2.0661  -10.6994   18.1916 C   0  0  0  0  0  0  0  0  0  0  0  0
    5.2703   -7.5691   27.1123 C   0  0  0  0  0  0  0  0  0  0  0  0
    1.6204   -9.9887   17.2935 C   0  0  0  0  0  0  0  0  0  0  0  0
    1.8931   -7.9265   16.2047 C   0  0  0  0  0  0  0  0  0  0  0  0
    2.4396   -9.0801   16.7132 C   0  0  0  0  0  0  0  0  0  0  0  0
   -0.2575   -8.6234   16.8582 C   0  0  0  0  0  0  0  0  0  0  0  0
    4.0614   -7.0367   27.0106 N   0  0  0  0  0  0  0  0  0  0  0  0
   -2.9133  -11.6279   18.7578 C   0  0  0  0  0  0  0  0  0  0  0  0
    4.5688  -10.1291   29.5758 C   0  0  0  0  0  0  0  0  0  0  0  0
    2.1008   -9.0410   29.1852 N   0  0  0  0  0  0  0  0  0  0  0  0
    3.4829  -10.5697   30.2091 N   0  0  0  0  0  0  0  0  0  0  0  0
   -0.3363   -6.1172   27.5628 C   0  0  0  0  0  0  0  0  0  0  0  0
    3.0331   -7.4400   27.6362 C   0  0  0  0  0  0  0  0  0  0  0  0
    5.4553   -8.5933   27.9644 C   0  0  0  0  0  0  0  0  0  0  0  0
   -2.3870  -12.8440   19.2512 C   0  0  0  0  0  0  0  0  0  0  0  0
    0.5331   -7.6964   16.2751 C   0  0  0  0  0  0  0  0  0  0  0  0
   -0.6740  -10.8737   18.0482 C   0  0  0  0  0  0  0  0  0  0  0  0
    5.6751  -10.5870   29.7637 O   0  0  0  0  0  0  0  0  0  0  0  0
    1.7612   -5.6483   26.7172 C   0  0  0  0  0  0  0  0  0  0  0  0
    0.2221   -9.8326   17.4055 C   0  0  0  0  0  0  0  0  0  0  0  0
    4.3850   -9.0730   28.6745 C   0  0  0  0  0  0  0  0  0  0  0  0
  1  7  4  0
  1 22  4  0
  2 17  4  0
  2 20  4  0
  2 28  4  0
  3  6  1  0
  3 19  1  0
  4 19  1  0
  4 26  1  0
  5 17  4  0
  5 18  4  0
  6 20  1  0
  6 26  1  0
  7 24  4  0
  8 15  4  0
  8 24  4  0
  9 14  4  0
  9 21  4  0
 10 12  4  0
 10 27  4  0
 11 12  4  0
 11 23  4  0
 13 23  4  0
 13 27  4  0
 14 20  4  0
 15 22  4  0
 16 18  4  0
 16 25  2  0
 16 28  4  0
 21 28  4  0
 24 27  1  0
M  END
$$$$

 Created by Python create_sdf_string function

 28 31  0  0  0  0  0  0  0  0999 V2000
   -1.0054  -13.0622   19.1198 C   0  0  0  0  0  0  0  0  0  0  0  0
    3.1478   -8.5360   28.5161 C   0  0  0  0  0  0  0  0  0  0  0  0
    0.5798   -7.1906   27.9330 C   0  0  0  0  0  0  0  0  0  0  0  0
    0.3978   -5.1561   26.6955 C   0  0  0  0  0  0  0  0  0  0  0  0
    2.3063  -10.0533   30.0125 C   0  0  0  0  0  0  0  0  0  0  0  0
    1.8591   -6.8254   27.4685 N   0  0  0  0  0  0  0  0  0  0  0  0
   -0.2167  -12.1055   18.5568 C   0  0  0  0  0  0  0  0  0  0  0  0
   -2.0661  -10.6994   18.1916 C   0  0  0  0  0  0  0  0  0  0  0  0
    5.2703   -7.5691   27.1123 C   0  0  0  0  0  0  0  0  0  0  0  0
    1.6204   -9.9887   17.2935 C   0  0  0  0  0  0  0  0  0  0  0  0
    1.8931   -7.9265   16.2047 C   0  0  0  0  0  0  0  0  0  0  0  0
    2.4396   -9.0801   16.7132 C   0  0  0  0  0  0  0  0  0  0  0  0
   -0.2575   -8.6234   16.8582 C   0  0  0  0  0  0  0  0  0  0  0  0
    4.0614   -7.0367   27.0106 N   0  0  0  0  0  0  0  0  0  0  0  0
   -2.9133  -11.6279   18.7578 C   0  0  0  0  0  0  0  0  0  0  0  0
    4.5688  -10.1291   29.5758 C   0  0  0  0  0  0  0  0  0  0  0  0
    2.1008   -9.0410   29.1852 N   0  0  0  0  0  0  0  0  0  0  0  0
    3.4829  -10.5697   30.2091 N   0  0  0  0  0  0  0  0  0  0  0  0
   -0.3363   -6.1172   27.5628 C   0  0  0  0  0  0  0  0  0  0  0  0
    3.0331   -7.4400   27.6362 C   0  0  0  0  0  0  0  0  0  0  0  0
    5.4553   -8.5933   27.9644 C   0  0  0  0  0  0  0  0  0  0  0  0
   -2.3870  -12.8440   19.2512 C   0  0  0  0  0  0  0  0  0  0  0  0
    0.5331   -7.6964   16.2751 C   0  0  0  0  0  0  0  0  0  0  0  0
   -0.6740  -10.8737   18.0482 C   0  0  0  0  0  0  0  0  0  0  0  0
    5.6751  -10.5870   29.7637 O   0  0  0  0  0  0  0  0  0  0  0  0
    1.7612   -5.6483   26.7172 C   0  0  0  0  0  0  0  0  0  0  0  0
    0.2221   -9.8326   17.4055 C   0  0  0  0  0  0  0  0  0  0  0  0
    4.3850   -9.0730   28.6745 C   0  0  0  0  0  0  0  0  0  0  0  0
  1  7  4  0
  1 22  4  0
  2 17  4  0
  2 20  4  0
  2 28  4  0
  3  6  1  0
  3 19  1  0
  4 19  1  0
  4 26  1  0
  5 17  4  0
  5 18  4  0
  6 20  1  0
  6 26  1  0
  7 24  4  0
  8 15  4  0
  8 24  4  0
  9 14  4  0
  9 21  4  0
 10 12  4  0
 10 27  4  0
 11 12  4  0
 11 23  4  0
 13 23  4  0
 13 27  4  0
 14 20  4  0
 15 22  4  0
 16 18  4  0
 16 25  2  0
 16 28  4  0
 21 28  4  0
 24 27  1  0
M  END
$$$$

 Created by Python create_sdf_string function

 28 31  0  0  0  0  0  0  0  0999 V2000
   -1.0054  -13.0622   19.1198 C   0  0  0  0  0  0  0  0  0  0  0  0
    3.1478   -8.5360   28.5161 C   0  0  0  0  0  0  0  0  0  0  0  0
    0.5798   -7.1906   27.9330 C   0  0  0  0  0  0  0  0  0  0  0  0
    0.3978   -5.1561   26.6955 C   0  0  0  0  0  0  0  0  0  0  0  0
    2.3063  -10.0533   30.0125 C   0  0  0  0  0  0  0  0  0  0  0  0
    1.8591   -6.8254   27.4685 N   0  0  0  0  0  0  0  0  0  0  0  0
   -0.2167  -12.1055   18.5568 C   0  0  0  0  0  0  0  0  0  0  0  0
   -2.0661  -10.6994   18.1916 C   0  0  0  0  0  0  0  0  0  0  0  0
    5.2703   -7.5691   27.1123 C   0  0  0  0  0  0  0  0  0  0  0  0
    1.6204   -9.9887   17.2935 C   0  0  0  0  0  0  0  0  0  0  0  0
    1.8931   -7.9265   16.2047 C   0  0  0  0  0  0  0  0  0  0  0  0
    2.4396   -9.0801   16.7132 C   0  0  0  0  0  0  0  0  0  0  0  0
   -0.2575   -8.6234   16.8582 C   0  0  0  0  0  0  0  0  0  0  0  0
    4.0614   -7.0367   27.0106 N   0  0  0  0  0  0  0  0  0  0  0  0
   -2.9133  -11.6279   18.7578 C   0  0  0  0  0  0  0  0  0  0  0  0
    4.5688  -10.1291   29.5758 C   0  0  0  0  0  0  0  0  0  0  0  0
    2.1008   -9.0410   29.1852 N   0  0  0  0  0  0  0  0  0  0  0  0
    3.4829  -10.5697   30.2091 N   0  0  0  0  0  0  0  0  0  0  0  0
   -0.3363   -6.1172   27.5628 C   0  0  0  0  0  0  0  0  0  0  0  0
    3.0331   -7.4400   27.6362 C   0  0  0  0  0  0  0  0  0  0  0  0
    5.4553   -8.5933   27.9644 C   0  0  0  0  0  0  0  0  0  0  0  0
   -2.3870  -12.8440   19.2512 C   0  0  0  0  0  0  0  0  0  0  0  0
    0.5331   -7.6964   16.2751 C   0  0  0  0  0  0  0  0  0  0  0  0
   -0.6740  -10.8737   18.0482 C   0  0  0  0  0  0  0  0  0  0  0  0
    5.6751  -10.5870   29.7637 O   0  0  0  0  0  0  0  0  0  0  0  0
    1.7612   -5.6483   26.7172 C   0  0  0  0  0  0  0  0  0  0  0  0
    0.2221   -9.8326   17.4055 C   0  0  0  0  0  0  0  0  0  0  0  0
    4.3850   -9.0730   28.6745 C   0  0  0  0  0  0  0  0  0  0  0  0
  1  7  4  0
  1 22  4  0
  2 17  4  0
  2 20  4  0
  2 28  4  0
  3  6  1  0
  3 19  1  0
  4 19  1  0
  4 26  1  0
  5 17  4  0
  5 18  4  0
  6 20  1  0
  6 26  1  0
  7 24  4  0
  8 15  4  0
  8 24  4  0
  9 14  4  0
  9 21  4  0
 10 12  4  0
 10 27  4  0
 11 12  4  0
 11 23  4  0
 13 23  4  0
 13 27  4  0
 14 20  4  0
 15 22  4  0
 16 18  4  0
 16 25  2  0
 16 28  4  0
 21 28  4  0
 24 27  1  0
M  END
$$$$

 Created by Python create_sdf_string function

 28 31  0  0  0  0  0  0  0  0999 V2000
   -1.0054  -13.0622   19.1198 C   0  0  0  0  0  0  0  0  0  0  0  0
    3.1478   -8.5360   28.5161 C   0  0  0  0  0  0  0  0  0  0  0  0
    0.5798   -7.1906   27.9330 C   0  0  0  0  0  0  0  0  0  0  0  0
    0.3978   -5.1561   26.6955 C   0  0  0  0  0  0  0  0  0  0  0  0
    2.3063  -10.0533   30.0125 C   0  0  0  0  0  0  0  0  0  0  0  0
    1.8591   -6.8254   27.4685 N   0  0  0  0  0  0  0  0  0  0  0  0
   -0.2167  -12.1055   18.5568 C   0  0  0  0  0  0  0  0  0  0  0  0
   -2.0661  -10.6994   18.1916 C   0  0  0  0  0  0  0  0  0  0  0  0
    5.2703   -7.5691   27.1123 C   0  0  0  0  0  0  0  0  0  0  0  0
    1.6204   -9.9887   17.2935 C   0  0  0  0  0  0  0  0  0  0  0  0
    1.8931   -7.9265   16.2047 C   0  0  0  0  0  0  0  0  0  0  0  0
    2.4396   -9.0801   16.7132 C   0  0  0  0  0  0  0  0  0  0  0  0
   -0.2575   -8.6234   16.8582 C   0  0  0  0  0  0  0  0  0  0  0  0
    4.0614   -7.0367   27.0106 N   0  0  0  0  0  0  0  0  0  0  0  0
   -2.9133  -11.6279   18.7578 C   0  0  0  0  0  0  0  0  0  0  0  0
    4.5688  -10.1291   29.5758 C   0  0  0  0  0  0  0  0  0  0  0  0
    2.1008   -9.0410   29.1852 N   0  0  0  0  0  0  0  0  0  0  0  0
    3.4829  -10.5697   30.2091 N   0  0  0  0  0  0  0  0  0  0  0  0
   -0.3363   -6.1172   27.5628 C   0  0  0  0  0  0  0  0  0  0  0  0
    3.0331   -7.4400   27.6362 C   0  0  0  0  0  0  0  0  0  0  0  0
    5.4553   -8.5933   27.9644 C   0  0  0  0  0  0  0  0  0  0  0  0
   -2.3870  -12.8440   19.2512 C   0  0  0  0  0  0  0  0  0  0  0  0
    0.5331   -7.6964   16.2751 C   0  0  0  0  0  0  0  0  0  0  0  0
   -0.6740  -10.8737   18.0482 C   0  0  0  0  0  0  0  0  0  0  0  0
    5.6751  -10.5870   29.7637 O   0  0  0  0  0  0  0  0  0  0  0  0
    1.7612   -5.6483   26.7172 C   0  0  0  0  0  0  0  0  0  0  0  0
    0.2221   -9.8326   17.4055 C   0  0  0  0  0  0  0  0  0  0  0  0
    4.3850   -9.0730   28.6745 C   0  0  0  0  0  0  0  0  0  0  0  0
  1  7  4  0
  1 22  4  0
  2 17  4  0
  2 20  4  0
  2 28  4  0
  3  6  1  0
  3 19  1  0
  4 19  1  0
  4 26  1  0
  5 17  4  0
  5 18  4  0
  6 20  1  0
  6 26  1  0
  7 24  4  0
  8 15  4  0
  8 24  4  0
  9 14  4  0
  9 21  4  0
 10 12  4  0
 10 27  4  0
 11 12  4  0
 11 23  4  0
 13 23  4  0
 13 27  4  0
 14 20  4  0
 15 22  4  0
 16 18  4  0
 16 25  2  0
 16 28  4  0
 21 28  4  0
 24 27  1  0
M  END
$$$$

 Created by Python create_sdf_string function

 28 31  0  0  0  0  0  0  0  0999 V2000
   -1.0054  -13.0622   19.1198 C   0  0  0  0  0  0  0  0  0  0  0  0
    3.1478   -8.5360   28.5161 C   0  0  0  0  0  0  0  0  0  0  0  0
    0.5798   -7.1906   27.9330 C   0  0  0  0  0  0  0  0  0  0  0  0
    0.3978   -5.1561   26.6955 C   0  0  0  0  0  0  0  0  0  0  0  0
    2.3063  -10.0533   30.0125 C   0  0  0  0  0  0  0  0  0  0  0  0
    1.8591   -6.8254   27.4685 N   0  0  0  0  0  0  0  0  0  0  0  0
   -0.2167  -12.1055   18.5568 C   0  0  0  0  0  0  0  0  0  0  0  0
   -2.0661  -10.6994   18.1916 C   0  0  0  0  0  0  0  0  0  0  0  0
    5.2703   -7.5691   27.1123 C   0  0  0  0  0  0  0  0  0  0  0  0
    1.6204   -9.9887   17.2935 C   0  0  0  0  0  0  0  0  0  0  0  0
    1.8931   -7.9265   16.2047 C   0  0  0  0  0  0  0  0  0  0  0  0
    2.4396   -9.0801   16.7132 C   0  0  0  0  0  0  0  0  0  0  0  0
   -0.2575   -8.6234   16.8582 C   0  0  0  0  0  0  0  0  0  0  0  0
    4.0614   -7.0367   27.0106 N   0  0  0  0  0  0  0  0  0  0  0  0
   -2.9133  -11.6279   18.7578 C   0  0  0  0  0  0  0  0  0  0  0  0
    4.5688  -10.1291   29.5758 C   0  0  0  0  0  0  0  0  0  0  0  0
    2.1008   -9.0410   29.1852 N   0  0  0  0  0  0  0  0  0  0  0  0
    3.4829  -10.5697   30.2091 N   0  0  0  0  0  0  0  0  0  0  0  0
   -0.3363   -6.1172   27.5628 C   0  0  0  0  0  0  0  0  0  0  0  0
    3.0331   -7.4400   27.6362 C   0  0  0  0  0  0  0  0  0  0  0  0
    5.4553   -8.5933   27.9644 C   0  0  0  0  0  0  0  0  0  0  0  0
   -2.3870  -12.8440   19.2512 C   0  0  0  0  0  0  0  0  0  0  0  0
    0.5331   -7.6964   16.2751 C   0  0  0  0  0  0  0  0  0  0  0  0
   -0.6740  -10.8737   18.0482 C   0  0  0  0  0  0  0  0  0  0  0  0
    5.6751  -10.5870   29.7637 O   0  0  0  0  0  0  0  0  0  0  0  0
    1.7612   -5.6483   26.7172 C   0  0  0  0  0  0  0  0  0  0  0  0
    0.2221   -9.8326   17.4055 C   0  0  0  0  0  0  0  0  0  0  0  0
    4.3850   -9.0730   28.6745 C   0  0  0  0  0  0  0  0  0  0  0  0
  1  7  4  0
  1 22  4  0
  2 17  4  0
  2 20  4  0
  2 28  4  0
  3  6  1  0
  3 19  1  0
  4 19  1  0
  4 26  1  0
  5 17  4  0
  5 18  4  0
  6 20  1  0
  6 26  1  0
  7 24  4  0
  8 15  4  0
  8 24  4  0
  9 14  4  0
  9 21  4  0
 10 12  4  0
 10 27  4  0
 11 12  4  0
 11 23  4  0
 13 23  4  0
 13 27  4  0
 14 20  4  0
 15 22  4  0
 16 18  4  0
 16 25  2  0
 16 28  4  0
 21 28  4  0
 24 27  1  0
M  END
$$$$

 Created by Python create_sdf_string function

 28 31  0  0  0  0  0  0  0  0999 V2000
   -1.0054  -13.0622   19.1198 C   0  0  0  0  0  0  0  0  0  0  0  0
    3.1478   -8.5360   28.5161 C   0  0  0  0  0  0  0  0  0  0  0  0
    0.5798   -7.1906   27.9330 C   0  0  0  0  0  0  0  0  0  0  0  0
    0.3978   -5.1561   26.6955 C   0  0  0  0  0  0  0  0  0  0  0  0
    2.3063  -10.0533   30.0125 C   0  0  0  0  0  0  0  0  0  0  0  0
    1.8591   -6.8254   27.4685 N   0  0  0  0  0  0  0  0  0  0  0  0
   -0.2167  -12.1055   18.5568 C   0  0  0  0  0  0  0  0  0  0  0  0
   -2.0661  -10.6994   18.1916 C   0  0  0  0  0  0  0  0  0  0  0  0
    5.2703   -7.5691   27.1123 C   0  0  0  0  0  0  0  0  0  0  0  0
    1.6204   -9.9887   17.2935 C   0  0  0  0  0  0  0  0  0  0  0  0
    1.8931   -7.9265   16.2047 C   0  0  0  0  0  0  0  0  0  0  0  0
    2.4396   -9.0801   16.7132 C   0  0  0  0  0  0  0  0  0  0  0  0
   -0.2575   -8.6234   16.8582 C   0  0  0  0  0  0  0  0  0  0  0  0
    4.0614   -7.0367   27.0106 N   0  0  0  0  0  0  0  0  0  0  0  0
   -2.9133  -11.6279   18.7578 C   0  0  0  0  0  0  0  0  0  0  0  0
    4.5688  -10.1291   29.5758 C   0  0  0  0  0  0  0  0  0  0  0  0
    2.1008   -9.0410   29.1852 N   0  0  0  0  0  0  0  0  0  0  0  0
    3.4829  -10.5697   30.2091 N   0  0  0  0  0  0  0  0  0  0  0  0
   -0.3363   -6.1172   27.5628 C   0  0  0  0  0  0  0  0  0  0  0  0
    3.0331   -7.4400   27.6362 C   0  0  0  0  0  0  0  0  0  0  0  0
    5.4553   -8.5933   27.9644 C   0  0  0  0  0  0  0  0  0  0  0  0
   -2.3870  -12.8440   19.2512 C   0  0  0  0  0  0  0  0  0  0  0  0
    0.5331   -7.6964   16.2751 C   0  0  0  0  0  0  0  0  0  0  0  0
   -0.6740  -10.8737   18.0482 C   0  0  0  0  0  0  0  0  0  0  0  0
    5.6751  -10.5870   29.7637 O   0  0  0  0  0  0  0  0  0  0  0  0
    1.7612   -5.6483   26.7172 C   0  0  0  0  0  0  0  0  0  0  0  0
    0.2221   -9.8326   17.4055 C   0  0  0  0  0  0  0  0  0  0  0  0
    4.3850   -9.0730   28.6745 C   0  0  0  0  0  0  0  0  0  0  0  0
  1  7  4  0
  1 22  4  0
  2 17  4  0
  2 20  4  0
  2 28  4  0
  3  6  1  0
  3 19  1  0
  4 19  1  0
  4 26  1  0
  5 17  4  0
  5 18  4  0
  6 20  1  0
  6 26  1  0
  7 24  4  0
  8 15  4  0
  8 24  4  0
  9 14  4  0
  9 21  4  0
 10 12  4  0
 10 27  4  0
 11 12  4  0
 11 23  4  0
 13 23  4  0
 13 27  4  0
 14 20  4  0
 15 22  4  0
 16 18  4  0
 16 25  2  0
 16 28  4  0
 21 28  4  0
 24 27  1  0
M  END
$$$$

 Created by Python create_sdf_string function

 28 31  0  0  0  0  0  0  0  0999 V2000
   -1.0054  -13.0622   19.1198 C   0  0  0  0  0  0  0  0  0  0  0  0
    3.1478   -8.5360   28.5161 C   0  0  0  0  0  0  0  0  0  0  0  0
    0.5798   -7.1906   27.9330 C   0  0  0  0  0  0  0  0  0  0  0  0
    0.3978   -5.1561   26.6955 C   0  0  0  0  0  0  0  0  0  0  0  0
    2.3063  -10.0533   30.0125 C   0  0  0  0  0  0  0  0  0  0  0  0
    1.8591   -6.8254   27.4685 N   0  0  0  0  0  0  0  0  0  0  0  0
   -0.2167  -12.1055   18.5568 C   0  0  0  0  0  0  0  0  0  0  0  0
   -2.0661  -10.6994   18.1916 C   0  0  0  0  0  0  0  0  0  0  0  0
    5.2703   -7.5691   27.1123 C   0  0  0  0  0  0  0  0  0  0  0  0
    1.6204   -9.9887   17.2935 C   0  0  0  0  0  0  0  0  0  0  0  0
    1.8931   -7.9265   16.2047 C   0  0  0  0  0  0  0  0  0  0  0  0
    2.4396   -9.0801   16.7132 C   0  0  0  0  0  0  0  0  0  0  0  0
   -0.2575   -8.6234   16.8582 C   0  0  0  0  0  0  0  0  0  0  0  0
    4.0614   -7.0367   27.0106 N   0  0  0  0  0  0  0  0  0  0  0  0
   -2.9133  -11.6279   18.7578 C   0  0  0  0  0  0  0  0  0  0  0  0
    4.5688  -10.1291   29.5758 C   0  0  0  0  0  0  0  0  0  0  0  0
    2.1008   -9.0410   29.1852 N   0  0  0  0  0  0  0  0  0  0  0  0
    3.4829  -10.5697   30.2091 N   0  0  0  0  0  0  0  0  0  0  0  0
   -0.3363   -6.1172   27.5628 C   0  0  0  0  0  0  0  0  0  0  0  0
    3.0331   -7.4400   27.6362 C   0  0  0  0  0  0  0  0  0  0  0  0
    5.4553   -8.5933   27.9644 C   0  0  0  0  0  0  0  0  0  0  0  0
   -2.3870  -12.8440   19.2512 C   0  0  0  0  0  0  0  0  0  0  0  0
    0.5331   -7.6964   16.2751 C   0  0  0  0  0  0  0  0  0  0  0  0
   -0.6740  -10.8737   18.0482 C   0  0  0  0  0  0  0  0  0  0  0  0
    5.6751  -10.5870   29.7637 O   0  0  0  0  0  0  0  0  0  0  0  0
    1.7612   -5.6483   26.7172 C   0  0  0  0  0  0  0  0  0  0  0  0
    0.2221   -9.8326   17.4055 C   0  0  0  0  0  0  0  0  0  0  0  0
    4.3850   -9.0730   28.6745 C   0  0  0  0  0  0  0  0  0  0  0  0
  1  7  4  0
  1 22  4  0
  2 17  4  0
  2 20  4  0
  2 28  4  0
  3  6  1  0
  3 19  1  0
  4 19  1  0
  4 26  1  0
  5 17  4  0
  5 18  4  0
  6 20  1  0
  6 26  1  0
  7 24  4  0
  8 15  4  0
  8 24  4  0
  9 14  4  0
  9 21  4  0
 10 12  4  0
 10 27  4  0
 11 12  4  0
 11 23  4  0
 13 23  4  0
 13 27  4  0
 14 20  4  0
 15 22  4  0
 16 18  4  0
 16 25  2  0
 16 28  4  0
 21 28  4  0
 24 27  1  0
M  END
$$$$

 Created by Python create_sdf_string function

 28 31  0  0  0  0  0  0  0  0999 V2000
   -1.0054  -13.0622   19.1198 C   0  0  0  0  0  0  0  0  0  0  0  0
    3.1478   -8.5360   28.5161 C   0  0  0  0  0  0  0  0  0  0  0  0
    0.5798   -7.1906   27.9330 C   0  0  0  0  0  0  0  0  0  0  0  0
    0.3978   -5.1561   26.6955 C   0  0  0  0  0  0  0  0  0  0  0  0
    2.3063  -10.0533   30.0125 C   0  0  0  0  0  0  0  0  0  0  0  0
    1.8591   -6.8254   27.4685 N   0  0  0  0  0  0  0  0  0  0  0  0
   -0.2167  -12.1055   18.5568 C   0  0  0  0  0  0  0  0  0  0  0  0
   -2.0661  -10.6994   18.1916 C   0  0  0  0  0  0  0  0  0  0  0  0
    5.2703   -7.5691   27.1123 C   0  0  0  0  0  0  0  0  0  0  0  0
    1.6204   -9.9887   17.2935 C   0  0  0  0  0  0  0  0  0  0  0  0
    1.8931   -7.9265   16.2047 C   0  0  0  0  0  0  0  0  0  0  0  0
    2.4396   -9.0801   16.7132 C   0  0  0  0  0  0  0  0  0  0  0  0
   -0.2575   -8.6234   16.8582 C   0  0  0  0  0  0  0  0  0  0  0  0
    4.0614   -7.0367   27.0106 N   0  0  0  0  0  0  0  0  0  0  0  0
   -2.9133  -11.6279   18.7578 C   0  0  0  0  0  0  0  0  0  0  0  0
    4.5688  -10.1291   29.5758 C   0  0  0  0  0  0  0  0  0  0  0  0
    2.1008   -9.0410   29.1852 N   0  0  0  0  0  0  0  0  0  0  0  0
    3.4829  -10.5697   30.2091 N   0  0  0  0  0  0  0  0  0  0  0  0
   -0.3363   -6.1172   27.5628 C   0  0  0  0  0  0  0  0  0  0  0  0
    3.0331   -7.4400   27.6362 C   0  0  0  0  0  0  0  0  0  0  0  0
    5.4553   -8.5933   27.9644 C   0  0  0  0  0  0  0  0  0  0  0  0
   -2.3870  -12.8440   19.2512 C   0  0  0  0  0  0  0  0  0  0  0  0
    0.5331   -7.6964   16.2751 C   0  0  0  0  0  0  0  0  0  0  0  0
   -0.6740  -10.8737   18.0482 C   0  0  0  0  0  0  0  0  0  0  0  0
    5.6751  -10.5870   29.7637 O   0  0  0  0  0  0  0  0  0  0  0  0
    1.7612   -5.6483   26.7172 C   0  0  0  0  0  0  0  0  0  0  0  0
    0.2221   -9.8326   17.4055 C   0  0  0  0  0  0  0  0  0  0  0  0
    4.3850   -9.0730   28.6745 C   0  0  0  0  0  0  0  0  0  0  0  0
  1  7  4  0
  1 22  4  0
  2 17  4  0
  2 20  4  0
  2 28  4  0
  3  6  1  0
  3 19  1  0
  4 19  1  0
  4 26  1  0
  5 17  4  0
  5 18  4  0
  6 20  1  0
  6 26  1  0
  7 24  4  0
  8 15  4  0
  8 24  4  0
  9 14  4  0
  9 21  4  0
 10 12  4  0
 10 27  4  0
 11 12  4  0
 11 23  4  0
 13 23  4  0
 13 27  4  0
 14 20  4  0
 15 22  4  0
 16 18  4  0
 16 25  2  0
 16 28  4  0
 21 28  4  0
 24 27  1  0
M  END
$$$$

 Created by Python create_sdf_string function

 28 31  0  0  0  0  0  0  0  0999 V2000
   -1.0054  -13.0622   19.1198 C   0  0  0  0  0  0  0  0  0  0  0  0
    3.1478   -8.5360   28.5161 C   0  0  0  0  0  0  0  0  0  0  0  0
    0.5798   -7.1906   27.9330 C   0  0  0  0  0  0  0  0  0  0  0  0
    0.3978   -5.1561   26.6955 C   0  0  0  0  0  0  0  0  0  0  0  0
    2.3063  -10.0533   30.0125 C   0  0  0  0  0  0  0  0  0  0  0  0
    1.8591   -6.8254   27.4685 N   0  0  0  0  0  0  0  0  0  0  0  0
   -0.2167  -12.1055   18.5568 C   0  0  0  0  0  0  0  0  0  0  0  0
   -2.0661  -10.6994   18.1916 C   0  0  0  0  0  0  0  0  0  0  0  0
    5.2703   -7.5691   27.1123 C   0  0  0  0  0  0  0  0  0  0  0  0
    1.6204   -9.9887   17.2935 C   0  0  0  0  0  0  0  0  0  0  0  0
    1.8931   -7.9265   16.2047 C   0  0  0  0  0  0  0  0  0  0  0  0
    2.4396   -9.0801   16.7132 C   0  0  0  0  0  0  0  0  0  0  0  0
   -0.2575   -8.6234   16.8582 C   0  0  0  0  0  0  0  0  0  0  0  0
    4.0614   -7.0367   27.0106 N   0  0  0  0  0  0  0  0  0  0  0  0
   -2.9133  -11.6279   18.7578 C   0  0  0  0  0  0  0  0  0  0  0  0
    4.5688  -10.1291   29.5758 C   0  0  0  0  0  0  0  0  0  0  0  0
    2.1008   -9.0410   29.1852 N   0  0  0  0  0  0  0  0  0  0  0  0
    3.4829  -10.5697   30.2091 N   0  0  0  0  0  0  0  0  0  0  0  0
   -0.3363   -6.1172   27.5628 C   0  0  0  0  0  0  0  0  0  0  0  0
    3.0331   -7.4400   27.6362 C   0  0  0  0  0  0  0  0  0  0  0  0
    5.4553   -8.5933   27.9644 C   0  0  0  0  0  0  0  0  0  0  0  0
   -2.3870  -12.8440   19.2512 C   0  0  0  0  0  0  0  0  0  0  0  0
    0.5331   -7.6964   16.2751 C   0  0  0  0  0  0  0  0  0  0  0  0
   -0.6740  -10.8737   18.0482 C   0  0  0  0  0  0  0  0  0  0  0  0
    5.6751  -10.5870   29.7637 O   0  0  0  0  0  0  0  0  0  0  0  0
    1.7612   -5.6483   26.7172 C   0  0  0  0  0  0  0  0  0  0  0  0
    0.2221   -9.8326   17.4055 C   0  0  0  0  0  0  0  0  0  0  0  0
    4.3850   -9.0730   28.6745 C   0  0  0  0  0  0  0  0  0  0  0  0
  1  7  4  0
  1 22  4  0
  2 17  4  0
  2 20  4  0
  2 28  4  0
  3  6  1  0
  3 19  1  0
  4 19  1  0
  4 26  1  0
  5 17  4  0
  5 18  4  0
  6 20  1  0
  6 26  1  0
  7 24  4  0
  8 15  4  0
  8 24  4  0
  9 14  4  0
  9 21  4  0
 10 12  4  0
 10 27  4  0
 11 12  4  0
 11 23  4  0
 13 23  4  0
 13 27  4  0
 14 20  4  0
 15 22  4  0
 16 18  4  0
 16 25  2  0
 16 28  4  0
 21 28  4  0
 24 27  1  0
M  END
$$$$

 Created by Python create_sdf_string function

 28 31  0  0  0  0  0  0  0  0999 V2000
   -1.0054  -13.0622   19.1198 C   0  0  0  0  0  0  0  0  0  0  0  0
    3.1478   -8.5360   28.5161 C   0  0  0  0  0  0  0  0  0  0  0  0
    0.5798   -7.1906   27.9330 C   0  0  0  0  0  0  0  0  0  0  0  0
    0.3978   -5.1561   26.6955 C   0  0  0  0  0  0  0  0  0  0  0  0
    2.3063  -10.0533   30.0125 C   0  0  0  0  0  0  0  0  0  0  0  0
    1.8591   -6.8254   27.4685 N   0  0  0  0  0  0  0  0  0  0  0  0
   -0.2167  -12.1055   18.5568 C   0  0  0  0  0  0  0  0  0  0  0  0
   -2.0661  -10.6994   18.1916 C   0  0  0  0  0  0  0  0  0  0  0  0
    5.2703   -7.5691   27.1123 C   0  0  0  0  0  0  0  0  0  0  0  0
    1.6204   -9.9887   17.2935 C   0  0  0  0  0  0  0  0  0  0  0  0
    1.8931   -7.9265   16.2047 C   0  0  0  0  0  0  0  0  0  0  0  0
    2.4396   -9.0801   16.7132 C   0  0  0  0  0  0  0  0  0  0  0  0
   -0.2575   -8.6234   16.8582 C   0  0  0  0  0  0  0  0  0  0  0  0
    4.0614   -7.0367   27.0106 N   0  0  0  0  0  0  0  0  0  0  0  0
   -2.9133  -11.6279   18.7578 C   0  0  0  0  0  0  0  0  0  0  0  0
    4.5688  -10.1291   29.5758 C   0  0  0  0  0  0  0  0  0  0  0  0
    2.1008   -9.0410   29.1852 N   0  0  0  0  0  0  0  0  0  0  0  0
    3.4829  -10.5697   30.2091 N   0  0  0  0  0  0  0  0  0  0  0  0
   -0.3363   -6.1172   27.5628 C   0  0  0  0  0  0  0  0  0  0  0  0
    3.0331   -7.4400   27.6362 C   0  0  0  0  0  0  0  0  0  0  0  0
    5.4553   -8.5933   27.9644 C   0  0  0  0  0  0  0  0  0  0  0  0
   -2.3870  -12.8440   19.2512 C   0  0  0  0  0  0  0  0  0  0  0  0
    0.5331   -7.6964   16.2751 C   0  0  0  0  0  0  0  0  0  0  0  0
   -0.6740  -10.8737   18.0482 C   0  0  0  0  0  0  0  0  0  0  0  0
    5.6751  -10.5870   29.7637 O   0  0  0  0  0  0  0  0  0  0  0  0
    1.7612   -5.6483   26.7172 C   0  0  0  0  0  0  0  0  0  0  0  0
    0.2221   -9.8326   17.4055 C   0  0  0  0  0  0  0  0  0  0  0  0
    4.3850   -9.0730   28.6745 C   0  0  0  0  0  0  0  0  0  0  0  0
  1  7  4  0
  1 22  4  0
  2 17  4  0
  2 20  4  0
  2 28  4  0
  3  6  1  0
  3 19  1  0
  4 19  1  0
  4 26  1  0
  5 17  4  0
  5 18  4  0
  6 20  1  0
  6 26  1  0
  7 24  4  0
  8 15  4  0
  8 24  4  0
  9 14  4  0
  9 21  4  0
 10 12  4  0
 10 27  4  0
 11 12  4  0
 11 23  4  0
 13 23  4  0
 13 27  4  0
 14 20  4  0
 15 22  4  0
 16 18  4  0
 16 25  2  0
 16 28  4  0
 21 28  4  0
 24 27  1  0
M  END
$$$$

 Created by Python create_sdf_string function

 28 31  0  0  0  0  0  0  0  0999 V2000
   -1.0054  -13.0622   19.1198 C   0  0  0  0  0  0  0  0  0  0  0  0
    3.1478   -8.5360   28.5161 C   0  0  0  0  0  0  0  0  0  0  0  0
    0.5798   -7.1906   27.9330 C   0  0  0  0  0  0  0  0  0  0  0  0
    0.3978   -5.1561   26.6955 C   0  0  0  0  0  0  0  0  0  0  0  0
    2.3063  -10.0533   30.0125 C   0  0  0  0  0  0  0  0  0  0  0  0
    1.8591   -6.8254   27.4685 N   0  0  0  0  0  0  0  0  0  0  0  0
   -0.2167  -12.1055   18.5568 C   0  0  0  0  0  0  0  0  0  0  0  0
   -2.0661  -10.6994   18.1916 C   0  0  0  0  0  0  0  0  0  0  0  0
    5.2703   -7.5691   27.1123 C   0  0  0  0  0  0  0  0  0  0  0  0
    1.6204   -9.9887   17.2935 C   0  0  0  0  0  0  0  0  0  0  0  0
    1.8931   -7.9265   16.2047 C   0  0  0  0  0  0  0  0  0  0  0  0
    2.4396   -9.0801   16.7132 C   0  0  0  0  0  0  0  0  0  0  0  0
   -0.2575   -8.6234   16.8582 C   0  0  0  0  0  0  0  0  0  0  0  0
    4.0614   -7.0367   27.0106 N   0  0  0  0  0  0  0  0  0  0  0  0
   -2.9133  -11.6279   18.7578 C   0  0  0  0  0  0  0  0  0  0  0  0
    4.5688  -10.1291   29.5758 C   0  0  0  0  0  0  0  0  0  0  0  0
    2.1008   -9.0410   29.1852 N   0  0  0  0  0  0  0  0  0  0  0  0
    3.4829  -10.5697   30.2091 N   0  0  0  0  0  0  0  0  0  0  0  0
   -0.3363   -6.1172   27.5628 C   0  0  0  0  0  0  0  0  0  0  0  0
    3.0331   -7.4400   27.6362 C   0  0  0  0  0  0  0  0  0  0  0  0
    5.4553   -8.5933   27.9644 C   0  0  0  0  0  0  0  0  0  0  0  0
   -2.3870  -12.8440   19.2512 C   0  0  0  0  0  0  0  0  0  0  0  0
    0.5331   -7.6964   16.2751 C   0  0  0  0  0  0  0  0  0  0  0  0
   -0.6740  -10.8737   18.0482 C   0  0  0  0  0  0  0  0  0  0  0  0
    5.6751  -10.5870   29.7637 O   0  0  0  0  0  0  0  0  0  0  0  0
    1.7612   -5.6483   26.7172 C   0  0  0  0  0  0  0  0  0  0  0  0
    0.2221   -9.8326   17.4055 C   0  0  0  0  0  0  0  0  0  0  0  0
    4.3850   -9.0730   28.6745 C   0  0  0  0  0  0  0  0  0  0  0  0
  1  7  4  0
  1 22  4  0
  2 17  4  0
  2 20  4  0
  2 28  4  0
  3  6  1  0
  3 19  1  0
  4 19  1  0
  4 26  1  0
  5 17  4  0
  5 18  4  0
  6 20  1  0
  6 26  1  0
  7 24  4  0
  8 15  4  0
  8 24  4  0
  9 14  4  0
  9 21  4  0
 10 12  4  0
 10 27  4  0
 11 12  4  0
 11 23  4  0
 13 23  4  0
 13 27  4  0
 14 20  4  0
 15 22  4  0
 16 18  4  0
 16 25  2  0
 16 28  4  0
 21 28  4  0
 24 27  1  0
M  END
$$$$

 Created by Python create_sdf_string function

 28 31  0  0  0  0  0  0  0  0999 V2000
   -1.0054  -13.0622   19.1198 C   0  0  0  0  0  0  0  0  0  0  0  0
    3.1478   -8.5360   28.5161 C   0  0  0  0  0  0  0  0  0  0  0  0
    0.5798   -7.1906   27.9330 C   0  0  0  0  0  0  0  0  0  0  0  0
    0.3978   -5.1561   26.6955 C   0  0  0  0  0  0  0  0  0  0  0  0
    2.3063  -10.0533   30.0125 C   0  0  0  0  0  0  0  0  0  0  0  0
    1.8591   -6.8254   27.4685 N   0  0  0  0  0  0  0  0  0  0  0  0
   -0.2167  -12.1055   18.5568 C   0  0  0  0  0  0  0  0  0  0  0  0
   -2.0661  -10.6994   18.1916 C   0  0  0  0  0  0  0  0  0  0  0  0
    5.2703   -7.5691   27.1123 C   0  0  0  0  0  0  0  0  0  0  0  0
    1.6204   -9.9887   17.2935 C   0  0  0  0  0  0  0  0  0  0  0  0
    1.8931   -7.9265   16.2047 C   0  0  0  0  0  0  0  0  0  0  0  0
    2.4396   -9.0801   16.7132 C   0  0  0  0  0  0  0  0  0  0  0  0
   -0.2575   -8.6234   16.8582 C   0  0  0  0  0  0  0  0  0  0  0  0
    4.0614   -7.0367   27.0106 N   0  0  0  0  0  0  0  0  0  0  0  0
   -2.9133  -11.6279   18.7578 C   0  0  0  0  0  0  0  0  0  0  0  0
    4.5688  -10.1291   29.5758 C   0  0  0  0  0  0  0  0  0  0  0  0
    2.1008   -9.0410   29.1852 N   0  0  0  0  0  0  0  0  0  0  0  0
    3.4829  -10.5697   30.2091 N   0  0  0  0  0  0  0  0  0  0  0  0
   -0.3363   -6.1172   27.5628 C   0  0  0  0  0  0  0  0  0  0  0  0
    3.0331   -7.4400   27.6362 C   0  0  0  0  0  0  0  0  0  0  0  0
    5.4553   -8.5933   27.9644 C   0  0  0  0  0  0  0  0  0  0  0  0
   -2.3870  -12.8440   19.2512 C   0  0  0  0  0  0  0  0  0  0  0  0
    0.5331   -7.6964   16.2751 C   0  0  0  0  0  0  0  0  0  0  0  0
   -0.6740  -10.8737   18.0482 C   0  0  0  0  0  0  0  0  0  0  0  0
    5.6751  -10.5870   29.7637 O   0  0  0  0  0  0  0  0  0  0  0  0
    1.7612   -5.6483   26.7172 C   0  0  0  0  0  0  0  0  0  0  0  0
    0.2221   -9.8326   17.4055 C   0  0  0  0  0  0  0  0  0  0  0  0
    4.3850   -9.0730   28.6745 C   0  0  0  0  0  0  0  0  0  0  0  0
  1  7  4  0
  1 22  4  0
  2 17  4  0
  2 20  4  0
  2 28  4  0
  3  6  1  0
  3 19  1  0
  4 19  1  0
  4 26  1  0
  5 17  4  0
  5 18  4  0
  6 20  1  0
  6 26  1  0
  7 24  4  0
  8 15  4  0
  8 24  4  0
  9 14  4  0
  9 21  4  0
 10 12  4  0
 10 27  4  0
 11 12  4  0
 11 23  4  0
 13 23  4  0
 13 27  4  0
 14 20  4  0
 15 22  4  0
 16 18  4  0
 16 25  2  0
 16 28  4  0
 21 28  4  0
 24 27  1  0
M  END
$$$$

 Created by Python create_sdf_string function

 28 31  0  0  0  0  0  0  0  0999 V2000
   -1.0054  -13.0622   19.1198 C   0  0  0  0  0  0  0  0  0  0  0  0
    3.1478   -8.5360   28.5161 C   0  0  0  0  0  0  0  0  0  0  0  0
    0.5798   -7.1906   27.9330 C   0  0  0  0  0  0  0  0  0  0  0  0
    0.3978   -5.1561   26.6955 C   0  0  0  0  0  0  0  0  0  0  0  0
    2.3063  -10.0533   30.0125 C   0  0  0  0  0  0  0  0  0  0  0  0
    1.8591   -6.8254   27.4685 N   0  0  0  0  0  0  0  0  0  0  0  0
   -0.2167  -12.1055   18.5568 C   0  0  0  0  0  0  0  0  0  0  0  0
   -2.0661  -10.6994   18.1916 C   0  0  0  0  0  0  0  0  0  0  0  0
    5.2703   -7.5691   27.1123 C   0  0  0  0  0  0  0  0  0  0  0  0
    1.6204   -9.9887   17.2935 C   0  0  0  0  0  0  0  0  0  0  0  0
    1.8931   -7.9265   16.2047 C   0  0  0  0  0  0  0  0  0  0  0  0
    2.4396   -9.0801   16.7132 C   0  0  0  0  0  0  0  0  0  0  0  0
   -0.2575   -8.6234   16.8582 C   0  0  0  0  0  0  0  0  0  0  0  0
    4.0614   -7.0367   27.0106 N   0  0  0  0  0  0  0  0  0  0  0  0
   -2.9133  -11.6279   18.7578 C   0  0  0  0  0  0  0  0  0  0  0  0
    4.5688  -10.1291   29.5758 C   0  0  0  0  0  0  0  0  0  0  0  0
    2.1008   -9.0410   29.1852 N   0  0  0  0  0  0  0  0  0  0  0  0
    3.4829  -10.5697   30.2091 N   0  0  0  0  0  0  0  0  0  0  0  0
   -0.3363   -6.1172   27.5628 C   0  0  0  0  0  0  0  0  0  0  0  0
    3.0331   -7.4400   27.6362 C   0  0  0  0  0  0  0  0  0  0  0  0
    5.4553   -8.5933   27.9644 C   0  0  0  0  0  0  0  0  0  0  0  0
   -2.3870  -12.8440   19.2512 C   0  0  0  0  0  0  0  0  0  0  0  0
    0.5331   -7.6964   16.2751 C   0  0  0  0  0  0  0  0  0  0  0  0
   -0.6740  -10.8737   18.0482 C   0  0  0  0  0  0  0  0  0  0  0  0
    5.6751  -10.5870   29.7637 O   0  0  0  0  0  0  0  0  0  0  0  0
    1.7612   -5.6483   26.7172 C   0  0  0  0  0  0  0  0  0  0  0  0
    0.2221   -9.8326   17.4055 C   0  0  0  0  0  0  0  0  0  0  0  0
    4.3850   -9.0730   28.6745 C   0  0  0  0  0  0  0  0  0  0  0  0
  1  7  4  0
  1 22  4  0
  2 17  4  0
  2 20  4  0
  2 28  4  0
  3  6  1  0
  3 19  1  0
  4 19  1  0
  4 26  1  0
  5 17  4  0
  5 18  4  0
  6 20  1  0
  6 26  1  0
  7 24  4  0
  8 15  4  0
  8 24  4  0
  9 14  4  0
  9 21  4  0
 10 12  4  0
 10 27  4  0
 11 12  4  0
 11 23  4  0
 13 23  4  0
 13 27  4  0
 14 20  4  0
 15 22  4  0
 16 18  4  0
 16 25  2  0
 16 28  4  0
 21 28  4  0
 24 27  1  0
M  END
$$$$

 Created by Python create_sdf_string function

 28 31  0  0  0  0  0  0  0  0999 V2000
   -1.0054  -13.0622   19.1198 C   0  0  0  0  0  0  0  0  0  0  0  0
    3.1478   -8.5360   28.5161 C   0  0  0  0  0  0  0  0  0  0  0  0
    0.5798   -7.1906   27.9330 C   0  0  0  0  0  0  0  0  0  0  0  0
    0.3978   -5.1561   26.6955 C   0  0  0  0  0  0  0  0  0  0  0  0
    2.3063  -10.0533   30.0125 C   0  0  0  0  0  0  0  0  0  0  0  0
    1.8591   -6.8254   27.4685 N   0  0  0  0  0  0  0  0  0  0  0  0
   -0.2167  -12.1055   18.5568 C   0  0  0  0  0  0  0  0  0  0  0  0
   -2.0661  -10.6994   18.1916 C   0  0  0  0  0  0  0  0  0  0  0  0
    5.2703   -7.5691   27.1123 C   0  0  0  0  0  0  0  0  0  0  0  0
    1.6204   -9.9887   17.2935 C   0  0  0  0  0  0  0  0  0  0  0  0
    1.8931   -7.9265   16.2047 C   0  0  0  0  0  0  0  0  0  0  0  0
    2.4396   -9.0801   16.7132 C   0  0  0  0  0  0  0  0  0  0  0  0
   -0.2575   -8.6234   16.8582 C   0  0  0  0  0  0  0  0  0  0  0  0
    4.0614   -7.0367   27.0106 N   0  0  0  0  0  0  0  0  0  0  0  0
   -2.9133  -11.6279   18.7578 C   0  0  0  0  0  0  0  0  0  0  0  0
    4.5688  -10.1291   29.5758 C   0  0  0  0  0  0  0  0  0  0  0  0
    2.1008   -9.0410   29.1852 N   0  0  0  0  0  0  0  0  0  0  0  0
    3.4829  -10.5697   30.2091 N   0  0  0  0  0  0  0  0  0  0  0  0
   -0.3363   -6.1172   27.5628 C   0  0  0  0  0  0  0  0  0  0  0  0
    3.0331   -7.4400   27.6362 C   0  0  0  0  0  0  0  0  0  0  0  0
    5.4553   -8.5933   27.9644 C   0  0  0  0  0  0  0  0  0  0  0  0
   -2.3870  -12.8440   19.2512 C   0  0  0  0  0  0  0  0  0  0  0  0
    0.5331   -7.6964   16.2751 C   0  0  0  0  0  0  0  0  0  0  0  0
   -0.6740  -10.8737   18.0482 C   0  0  0  0  0  0  0  0  0  0  0  0
    5.6751  -10.5870   29.7637 O   0  0  0  0  0  0  0  0  0  0  0  0
    1.7612   -5.6483   26.7172 C   0  0  0  0  0  0  0  0  0  0  0  0
    0.2221   -9.8326   17.4055 C   0  0  0  0  0  0  0  0  0  0  0  0
    4.3850   -9.0730   28.6745 C   0  0  0  0  0  0  0  0  0  0  0  0
  1  7  4  0
  1 22  4  0
  2 17  4  0
  2 20  4  0
  2 28  4  0
  3  6  1  0
  3 19  1  0
  4 19  1  0
  4 26  1  0
  5 17  4  0
  5 18  4  0
  6 20  1  0
  6 26  1  0
  7 24  4  0
  8 15  4  0
  8 24  4  0
  9 14  4  0
  9 21  4  0
 10 12  4  0
 10 27  4  0
 11 12  4  0
 11 23  4  0
 13 23  4  0
 13 27  4  0
 14 20  4  0
 15 22  4  0
 16 18  4  0
 16 25  2  0
 16 28  4  0
 21 28  4  0
 24 27  1  0
M  END
$$$$

 Created by Python create_sdf_string function

 28 31  0  0  0  0  0  0  0  0999 V2000
   -1.0054  -13.0622   19.1198 C   0  0  0  0  0  0  0  0  0  0  0  0
    3.1478   -8.5360   28.5161 C   0  0  0  0  0  0  0  0  0  0  0  0
    0.5798   -7.1906   27.9330 C   0  0  0  0  0  0  0  0  0  0  0  0
    0.3978   -5.1561   26.6955 C   0  0  0  0  0  0  0  0  0  0  0  0
    2.3063  -10.0533   30.0125 C   0  0  0  0  0  0  0  0  0  0  0  0
    1.8591   -6.8254   27.4685 N   0  0  0  0  0  0  0  0  0  0  0  0
   -0.2167  -12.1055   18.5568 C   0  0  0  0  0  0  0  0  0  0  0  0
   -2.0661  -10.6994   18.1916 C   0  0  0  0  0  0  0  0  0  0  0  0
    5.2703   -7.5691   27.1123 C   0  0  0  0  0  0  0  0  0  0  0  0
    1.6204   -9.9887   17.2935 C   0  0  0  0  0  0  0  0  0  0  0  0
    1.8931   -7.9265   16.2047 C   0  0  0  0  0  0  0  0  0  0  0  0
    2.4396   -9.0801   16.7132 C   0  0  0  0  0  0  0  0  0  0  0  0
   -0.2575   -8.6234   16.8582 C   0  0  0  0  0  0  0  0  0  0  0  0
    4.0614   -7.0367   27.0106 N   0  0  0  0  0  0  0  0  0  0  0  0
   -2.9133  -11.6279   18.7578 C   0  0  0  0  0  0  0  0  0  0  0  0
    4.5688  -10.1291   29.5758 C   0  0  0  0  0  0  0  0  0  0  0  0
    2.1008   -9.0410   29.1852 N   0  0  0  0  0  0  0  0  0  0  0  0
    3.4829  -10.5697   30.2091 N   0  0  0  0  0  0  0  0  0  0  0  0
   -0.3363   -6.1172   27.5628 C   0  0  0  0  0  0  0  0  0  0  0  0
    3.0331   -7.4400   27.6362 C   0  0  0  0  0  0  0  0  0  0  0  0
    5.4553   -8.5933   27.9644 C   0  0  0  0  0  0  0  0  0  0  0  0
   -2.3870  -12.8440   19.2512 C   0  0  0  0  0  0  0  0  0  0  0  0
    0.5331   -7.6964   16.2751 C   0  0  0  0  0  0  0  0  0  0  0  0
   -0.6740  -10.8737   18.0482 C   0  0  0  0  0  0  0  0  0  0  0  0
    5.6751  -10.5870   29.7637 O   0  0  0  0  0  0  0  0  0  0  0  0
    1.7612   -5.6483   26.7172 C   0  0  0  0  0  0  0  0  0  0  0  0
    0.2221   -9.8326   17.4055 C   0  0  0  0  0  0  0  0  0  0  0  0
    4.3850   -9.0730   28.6745 C   0  0  0  0  0  0  0  0  0  0  0  0
  1  7  4  0
  1 22  4  0
  2 17  4  0
  2 20  4  0
  2 28  4  0
  3  6  1  0
  3 19  1  0
  4 19  1  0
  4 26  1  0
  5 17  4  0
  5 18  4  0
  6 20  1  0
  6 26  1  0
  7 24  4  0
  8 15  4  0
  8 24  4  0
  9 14  4  0
  9 21  4  0
 10 12  4  0
 10 27  4  0
 11 12  4  0
 11 23  4  0
 13 23  4  0
 13 27  4  0
 14 20  4  0
 15 22  4  0
 16 18  4  0
 16 25  2  0
 16 28  4  0
 21 28  4  0
 24 27  1  0
M  END
$$$$

 Created by Python create_sdf_string function

 28 31  0  0  0  0  0  0  0  0999 V2000
   -1.0054  -13.0622   19.1198 C   0  0  0  0  0  0  0  0  0  0  0  0
    3.1478   -8.5360   28.5161 C   0  0  0  0  0  0  0  0  0  0  0  0
    0.5798   -7.1906   27.9330 C   0  0  0  0  0  0  0  0  0  0  0  0
    0.3978   -5.1561   26.6955 C   0  0  0  0  0  0  0  0  0  0  0  0
    2.3063  -10.0533   30.0125 C   0  0  0  0  0  0  0  0  0  0  0  0
    1.8591   -6.8254   27.4685 N   0  0  0  0  0  0  0  0  0  0  0  0
   -0.2167  -12.1055   18.5568 C   0  0  0  0  0  0  0  0  0  0  0  0
   -2.0661  -10.6994   18.1916 C   0  0  0  0  0  0  0  0  0  0  0  0
    5.2703   -7.5691   27.1123 C   0  0  0  0  0  0  0  0  0  0  0  0
    1.6204   -9.9887   17.2935 C   0  0  0  0  0  0  0  0  0  0  0  0
    1.8931   -7.9265   16.2047 C   0  0  0  0  0  0  0  0  0  0  0  0
    2.4396   -9.0801   16.7132 C   0  0  0  0  0  0  0  0  0  0  0  0
   -0.2575   -8.6234   16.8582 C   0  0  0  0  0  0  0  0  0  0  0  0
    4.0614   -7.0367   27.0106 N   0  0  0  0  0  0  0  0  0  0  0  0
   -2.9133  -11.6279   18.7578 C   0  0  0  0  0  0  0  0  0  0  0  0
    4.5688  -10.1291   29.5758 C   0  0  0  0  0  0  0  0  0  0  0  0
    2.1008   -9.0410   29.1852 N   0  0  0  0  0  0  0  0  0  0  0  0
    3.4829  -10.5697   30.2091 N   0  0  0  0  0  0  0  0  0  0  0  0
   -0.3363   -6.1172   27.5628 C   0  0  0  0  0  0  0  0  0  0  0  0
    3.0331   -7.4400   27.6362 C   0  0  0  0  0  0  0  0  0  0  0  0
    5.4553   -8.5933   27.9644 C   0  0  0  0  0  0  0  0  0  0  0  0
   -2.3870  -12.8440   19.2512 C   0  0  0  0  0  0  0  0  0  0  0  0
    0.5331   -7.6964   16.2751 C   0  0  0  0  0  0  0  0  0  0  0  0
   -0.6740  -10.8737   18.0482 C   0  0  0  0  0  0  0  0  0  0  0  0
    5.6751  -10.5870   29.7637 O   0  0  0  0  0  0  0  0  0  0  0  0
    1.7612   -5.6483   26.7172 C   0  0  0  0  0  0  0  0  0  0  0  0
    0.2221   -9.8326   17.4055 C   0  0  0  0  0  0  0  0  0  0  0  0
    4.3850   -9.0730   28.6745 C   0  0  0  0  0  0  0  0  0  0  0  0
  1  7  4  0
  1 22  4  0
  2 17  4  0
  2 20  4  0
  2 28  4  0
  3  6  1  0
  3 19  1  0
  4 19  1  0
  4 26  1  0
  5 17  4  0
  5 18  4  0
  6 20  1  0
  6 26  1  0
  7 24  4  0
  8 15  4  0
  8 24  4  0
  9 14  4  0
  9 21  4  0
 10 12  4  0
 10 27  4  0
 11 12  4  0
 11 23  4  0
 13 23  4  0
 13 27  4  0
 14 20  4  0
 15 22  4  0
 16 18  4  0
 16 25  2  0
 16 28  4  0
 21 28  4  0
 24 27  1  0
M  END
$$$$

 Created by Python create_sdf_string function

 28 31  0  0  0  0  0  0  0  0999 V2000
   -1.0054  -13.0622   19.1198 C   0  0  0  0  0  0  0  0  0  0  0  0
    3.1478   -8.5360   28.5161 C   0  0  0  0  0  0  0  0  0  0  0  0
    0.5798   -7.1906   27.9330 C   0  0  0  0  0  0  0  0  0  0  0  0
    0.3978   -5.1561   26.6955 C   0  0  0  0  0  0  0  0  0  0  0  0
    2.3063  -10.0533   30.0125 C   0  0  0  0  0  0  0  0  0  0  0  0
    1.8591   -6.8254   27.4685 N   0  0  0  0  0  0  0  0  0  0  0  0
   -0.2167  -12.1055   18.5568 C   0  0  0  0  0  0  0  0  0  0  0  0
   -2.0661  -10.6994   18.1916 C   0  0  0  0  0  0  0  0  0  0  0  0
    5.2703   -7.5691   27.1123 C   0  0  0  0  0  0  0  0  0  0  0  0
    1.6204   -9.9887   17.2935 C   0  0  0  0  0  0  0  0  0  0  0  0
    1.8931   -7.9265   16.2047 C   0  0  0  0  0  0  0  0  0  0  0  0
    2.4396   -9.0801   16.7132 C   0  0  0  0  0  0  0  0  0  0  0  0
   -0.2575   -8.6234   16.8582 C   0  0  0  0  0  0  0  0  0  0  0  0
    4.0614   -7.0367   27.0106 N   0  0  0  0  0  0  0  0  0  0  0  0
   -2.9133  -11.6279   18.7578 C   0  0  0  0  0  0  0  0  0  0  0  0
    4.5688  -10.1291   29.5758 C   0  0  0  0  0  0  0  0  0  0  0  0
    2.1008   -9.0410   29.1852 N   0  0  0  0  0  0  0  0  0  0  0  0
    3.4829  -10.5697   30.2091 N   0  0  0  0  0  0  0  0  0  0  0  0
   -0.3363   -6.1172   27.5628 C   0  0  0  0  0  0  0  0  0  0  0  0
    3.0331   -7.4400   27.6362 C   0  0  0  0  0  0  0  0  0  0  0  0
    5.4553   -8.5933   27.9644 C   0  0  0  0  0  0  0  0  0  0  0  0
   -2.3870  -12.8440   19.2512 C   0  0  0  0  0  0  0  0  0  0  0  0
    0.5331   -7.6964   16.2751 C   0  0  0  0  0  0  0  0  0  0  0  0
   -0.6740  -10.8737   18.0482 C   0  0  0  0  0  0  0  0  0  0  0  0
    5.6751  -10.5870   29.7637 O   0  0  0  0  0  0  0  0  0  0  0  0
    1.7612   -5.6483   26.7172 C   0  0  0  0  0  0  0  0  0  0  0  0
    0.2221   -9.8326   17.4055 C   0  0  0  0  0  0  0  0  0  0  0  0
    4.3850   -9.0730   28.6745 C   0  0  0  0  0  0  0  0  0  0  0  0
  1  7  4  0
  1 22  4  0
  2 17  4  0
  2 20  4  0
  2 28  4  0
  3  6  1  0
  3 19  1  0
  4 19  1  0
  4 26  1  0
  5 17  4  0
  5 18  4  0
  6 20  1  0
  6 26  1  0
  7 24  4  0
  8 15  4  0
  8 24  4  0
  9 14  4  0
  9 21  4  0
 10 12  4  0
 10 27  4  0
 11 12  4  0
 11 23  4  0
 13 23  4  0
 13 27  4  0
 14 20  4  0
 15 22  4  0
 16 18  4  0
 16 25  2  0
 16 28  4  0
 21 28  4  0
 24 27  1  0
M  END
$$$$

 Created by Python create_sdf_string function

 28 31  0  0  0  0  0  0  0  0999 V2000
   -1.0054  -13.0622   19.1198 C   0  0  0  0  0  0  0  0  0  0  0  0
    3.1478   -8.5360   28.5161 C   0  0  0  0  0  0  0  0  0  0  0  0
    0.5798   -7.1906   27.9330 C   0  0  0  0  0  0  0  0  0  0  0  0
    0.3978   -5.1561   26.6955 C   0  0  0  0  0  0  0  0  0  0  0  0
    2.3063  -10.0533   30.0125 C   0  0  0  0  0  0  0  0  0  0  0  0
    1.8591   -6.8254   27.4685 N   0  0  0  0  0  0  0  0  0  0  0  0
   -0.2167  -12.1055   18.5568 C   0  0  0  0  0  0  0  0  0  0  0  0
   -2.0661  -10.6994   18.1916 C   0  0  0  0  0  0  0  0  0  0  0  0
    5.2703   -7.5691   27.1123 C   0  0  0  0  0  0  0  0  0  0  0  0
    1.6204   -9.9887   17.2935 C   0  0  0  0  0  0  0  0  0  0  0  0
    1.8931   -7.9265   16.2047 C   0  0  0  0  0  0  0  0  0  0  0  0
    2.4396   -9.0801   16.7132 C   0  0  0  0  0  0  0  0  0  0  0  0
   -0.2575   -8.6234   16.8582 C   0  0  0  0  0  0  0  0  0  0  0  0
    4.0614   -7.0367   27.0106 N   0  0  0  0  0  0  0  0  0  0  0  0
   -2.9133  -11.6279   18.7578 C   0  0  0  0  0  0  0  0  0  0  0  0
    4.5688  -10.1291   29.5758 C   0  0  0  0  0  0  0  0  0  0  0  0
    2.1008   -9.0410   29.1852 N   0  0  0  0  0  0  0  0  0  0  0  0
    3.4829  -10.5697   30.2091 N   0  0  0  0  0  0  0  0  0  0  0  0
   -0.3363   -6.1172   27.5628 C   0  0  0  0  0  0  0  0  0  0  0  0
    3.0331   -7.4400   27.6362 C   0  0  0  0  0  0  0  0  0  0  0  0
    5.4553   -8.5933   27.9644 C   0  0  0  0  0  0  0  0  0  0  0  0
   -2.3870  -12.8440   19.2512 C   0  0  0  0  0  0  0  0  0  0  0  0
    0.5331   -7.6964   16.2751 C   0  0  0  0  0  0  0  0  0  0  0  0
   -0.6740  -10.8737   18.0482 C   0  0  0  0  0  0  0  0  0  0  0  0
    5.6751  -10.5870   29.7637 O   0  0  0  0  0  0  0  0  0  0  0  0
    1.7612   -5.6483   26.7172 C   0  0  0  0  0  0  0  0  0  0  0  0
    0.2221   -9.8326   17.4055 C   0  0  0  0  0  0  0  0  0  0  0  0
    4.3850   -9.0730   28.6745 C   0  0  0  0  0  0  0  0  0  0  0  0
  1  7  4  0
  1 22  4  0
  2 17  4  0
  2 20  4  0
  2 28  4  0
  3  6  1  0
  3 19  1  0
  4 19  1  0
  4 26  1  0
  5 17  4  0
  5 18  4  0
  6 20  1  0
  6 26  1  0
  7 24  4  0
  8 15  4  0
  8 24  4  0
  9 14  4  0
  9 21  4  0
 10 12  4  0
 10 27  4  0
 11 12  4  0
 11 23  4  0
 13 23  4  0
 13 27  4  0
 14 20  4  0
 15 22  4  0
 16 18  4  0
 16 25  2  0
 16 28  4  0
 21 28  4  0
 24 27  1  0
M  END
$$$$

 Created by Python create_sdf_string function

 28 31  0  0  0  0  0  0  0  0999 V2000
   -1.0054  -13.0622   19.1198 C   0  0  0  0  0  0  0  0  0  0  0  0
    3.1478   -8.5360   28.5161 C   0  0  0  0  0  0  0  0  0  0  0  0
    0.5798   -7.1906   27.9330 C   0  0  0  0  0  0  0  0  0  0  0  0
    0.3978   -5.1561   26.6955 C   0  0  0  0  0  0  0  0  0  0  0  0
    2.3063  -10.0533   30.0125 C   0  0  0  0  0  0  0  0  0  0  0  0
    1.8591   -6.8254   27.4685 N   0  0  0  0  0  0  0  0  0  0  0  0
   -0.2167  -12.1055   18.5568 C   0  0  0  0  0  0  0  0  0  0  0  0
   -2.0661  -10.6994   18.1916 C   0  0  0  0  0  0  0  0  0  0  0  0
    5.2703   -7.5691   27.1123 C   0  0  0  0  0  0  0  0  0  0  0  0
    1.6204   -9.9887   17.2935 C   0  0  0  0  0  0  0  0  0  0  0  0
    1.8931   -7.9265   16.2047 C   0  0  0  0  0  0  0  0  0  0  0  0
    2.4396   -9.0801   16.7132 C   0  0  0  0  0  0  0  0  0  0  0  0
   -0.2575   -8.6234   16.8582 C   0  0  0  0  0  0  0  0  0  0  0  0
    4.0614   -7.0367   27.0106 N   0  0  0  0  0  0  0  0  0  0  0  0
   -2.9133  -11.6279   18.7578 C   0  0  0  0  0  0  0  0  0  0  0  0
    4.5688  -10.1291   29.5758 C   0  0  0  0  0  0  0  0  0  0  0  0
    2.1008   -9.0410   29.1852 N   0  0  0  0  0  0  0  0  0  0  0  0
    3.4829  -10.5697   30.2091 N   0  0  0  0  0  0  0  0  0  0  0  0
   -0.3363   -6.1172   27.5628 C   0  0  0  0  0  0  0  0  0  0  0  0
    3.0331   -7.4400   27.6362 C   0  0  0  0  0  0  0  0  0  0  0  0
    5.4553   -8.5933   27.9644 C   0  0  0  0  0  0  0  0  0  0  0  0
   -2.3870  -12.8440   19.2512 C   0  0  0  0  0  0  0  0  0  0  0  0
    0.5331   -7.6964   16.2751 C   0  0  0  0  0  0  0  0  0  0  0  0
   -0.6740  -10.8737   18.0482 C   0  0  0  0  0  0  0  0  0  0  0  0
    5.6751  -10.5870   29.7637 O   0  0  0  0  0  0  0  0  0  0  0  0
    1.7612   -5.6483   26.7172 C   0  0  0  0  0  0  0  0  0  0  0  0
    0.2221   -9.8326   17.4055 C   0  0  0  0  0  0  0  0  0  0  0  0
    4.3850   -9.0730   28.6745 C   0  0  0  0  0  0  0  0  0  0  0  0
  1  7  4  0
  1 22  4  0
  2 17  4  0
  2 20  4  0
  2 28  4  0
  3  6  1  0
  3 19  1  0
  4 19  1  0
  4 26  1  0
  5 17  4  0
  5 18  4  0
  6 20  1  0
  6 26  1  0
  7 24  4  0
  8 15  4  0
  8 24  4  0
  9 14  4  0
  9 21  4  0
 10 12  4  0
 10 27  4  0
 11 12  4  0
 11 23  4  0
 13 23  4  0
 13 27  4  0
 14 20  4  0
 15 22  4  0
 16 18  4  0
 16 25  2  0
 16 28  4  0
 21 28  4  0
 24 27  1  0
M  END
$$$$

 Created by Python create_sdf_string function

 28 31  0  0  0  0  0  0  0  0999 V2000
   -1.0054  -13.0622   19.1198 C   0  0  0  0  0  0  0  0  0  0  0  0
    3.1478   -8.5360   28.5161 C   0  0  0  0  0  0  0  0  0  0  0  0
    0.5798   -7.1906   27.9330 C   0  0  0  0  0  0  0  0  0  0  0  0
    0.3978   -5.1561   26.6955 C   0  0  0  0  0  0  0  0  0  0  0  0
    2.3063  -10.0533   30.0125 C   0  0  0  0  0  0  0  0  0  0  0  0
    1.8591   -6.8254   27.4685 N   0  0  0  0  0  0  0  0  0  0  0  0
   -0.2167  -12.1055   18.5568 C   0  0  0  0  0  0  0  0  0  0  0  0
   -2.0661  -10.6994   18.1916 C   0  0  0  0  0  0  0  0  0  0  0  0
    5.2703   -7.5691   27.1123 C   0  0  0  0  0  0  0  0  0  0  0  0
    1.6204   -9.9887   17.2935 C   0  0  0  0  0  0  0  0  0  0  0  0
    1.8931   -7.9265   16.2047 C   0  0  0  0  0  0  0  0  0  0  0  0
    2.4396   -9.0801   16.7132 C   0  0  0  0  0  0  0  0  0  0  0  0
   -0.2575   -8.6234   16.8582 C   0  0  0  0  0  0  0  0  0  0  0  0
    4.0614   -7.0367   27.0106 N   0  0  0  0  0  0  0  0  0  0  0  0
   -2.9133  -11.6279   18.7578 C   0  0  0  0  0  0  0  0  0  0  0  0
    4.5688  -10.1291   29.5758 C   0  0  0  0  0  0  0  0  0  0  0  0
    2.1008   -9.0410   29.1852 N   0  0  0  0  0  0  0  0  0  0  0  0
    3.4829  -10.5697   30.2091 N   0  0  0  0  0  0  0  0  0  0  0  0
   -0.3363   -6.1172   27.5628 C   0  0  0  0  0  0  0  0  0  0  0  0
    3.0331   -7.4400   27.6362 C   0  0  0  0  0  0  0  0  0  0  0  0
    5.4553   -8.5933   27.9644 C   0  0  0  0  0  0  0  0  0  0  0  0
   -2.3870  -12.8440   19.2512 C   0  0  0  0  0  0  0  0  0  0  0  0
    0.5331   -7.6964   16.2751 C   0  0  0  0  0  0  0  0  0  0  0  0
   -0.6740  -10.8737   18.0482 C   0  0  0  0  0  0  0  0  0  0  0  0
    5.6751  -10.5870   29.7637 O   0  0  0  0  0  0  0  0  0  0  0  0
    1.7612   -5.6483   26.7172 C   0  0  0  0  0  0  0  0  0  0  0  0
    0.2221   -9.8326   17.4055 C   0  0  0  0  0  0  0  0  0  0  0  0
    4.3850   -9.0730   28.6745 C   0  0  0  0  0  0  0  0  0  0  0  0
  1  7  4  0
  1 22  4  0
  2 17  4  0
  2 20  4  0
  2 28  4  0
  3  6  1  0
  3 19  1  0
  4 19  1  0
  4 26  1  0
  5 17  4  0
  5 18  4  0
  6 20  1  0
  6 26  1  0
  7 24  4  0
  8 15  4  0
  8 24  4  0
  9 14  4  0
  9 21  4  0
 10 12  4  0
 10 27  4  0
 11 12  4  0
 11 23  4  0
 13 23  4  0
 13 27  4  0
 14 20  4  0
 15 22  4  0
 16 18  4  0
 16 25  2  0
 16 28  4  0
 21 28  4  0
 24 27  1  0
M  END
$$$$

 Created by Python create_sdf_string function

 28 31  0  0  0  0  0  0  0  0999 V2000
   -1.0054  -13.0622   19.1198 C   0  0  0  0  0  0  0  0  0  0  0  0
    3.1478   -8.5360   28.5161 C   0  0  0  0  0  0  0  0  0  0  0  0
    0.5798   -7.1906   27.9330 C   0  0  0  0  0  0  0  0  0  0  0  0
    0.3978   -5.1561   26.6955 C   0  0  0  0  0  0  0  0  0  0  0  0
    2.3063  -10.0533   30.0125 C   0  0  0  0  0  0  0  0  0  0  0  0
    1.8591   -6.8254   27.4685 N   0  0  0  0  0  0  0  0  0  0  0  0
   -0.2167  -12.1055   18.5568 C   0  0  0  0  0  0  0  0  0  0  0  0
   -2.0661  -10.6994   18.1916 C   0  0  0  0  0  0  0  0  0  0  0  0
    5.2703   -7.5691   27.1123 C   0  0  0  0  0  0  0  0  0  0  0  0
    1.6204   -9.9887   17.2935 C   0  0  0  0  0  0  0  0  0  0  0  0
    1.8931   -7.9265   16.2047 C   0  0  0  0  0  0  0  0  0  0  0  0
    2.4396   -9.0801   16.7132 C   0  0  0  0  0  0  0  0  0  0  0  0
   -0.2575   -8.6234   16.8582 C   0  0  0  0  0  0  0  0  0  0  0  0
    4.0614   -7.0367   27.0106 N   0  0  0  0  0  0  0  0  0  0  0  0
   -2.9133  -11.6279   18.7578 C   0  0  0  0  0  0  0  0  0  0  0  0
    4.5688  -10.1291   29.5758 C   0  0  0  0  0  0  0  0  0  0  0  0
    2.1008   -9.0410   29.1852 N   0  0  0  0  0  0  0  0  0  0  0  0
    3.4829  -10.5697   30.2091 N   0  0  0  0  0  0  0  0  0  0  0  0
   -0.3363   -6.1172   27.5628 C   0  0  0  0  0  0  0  0  0  0  0  0
    3.0331   -7.4400   27.6362 C   0  0  0  0  0  0  0  0  0  0  0  0
    5.4553   -8.5933   27.9644 C   0  0  0  0  0  0  0  0  0  0  0  0
   -2.3870  -12.8440   19.2512 C   0  0  0  0  0  0  0  0  0  0  0  0
    0.5331   -7.6964   16.2751 C   0  0  0  0  0  0  0  0  0  0  0  0
   -0.6740  -10.8737   18.0482 C   0  0  0  0  0  0  0  0  0  0  0  0
    5.6751  -10.5870   29.7637 O   0  0  0  0  0  0  0  0  0  0  0  0
    1.7612   -5.6483   26.7172 C   0  0  0  0  0  0  0  0  0  0  0  0
    0.2221   -9.8326   17.4055 C   0  0  0  0  0  0  0  0  0  0  0  0
    4.3850   -9.0730   28.6745 C   0  0  0  0  0  0  0  0  0  0  0  0
  1  7  4  0
  1 22  4  0
  2 17  4  0
  2 20  4  0
  2 28  4  0
  3  6  1  0
  3 19  1  0
  4 19  1  0
  4 26  1  0
  5 17  4  0
  5 18  4  0
  6 20  1  0
  6 26  1  0
  7 24  4  0
  8 15  4  0
  8 24  4  0
  9 14  4  0
  9 21  4  0
 10 12  4  0
 10 27  4  0
 11 12  4  0
 11 23  4  0
 13 23  4  0
 13 27  4  0
 14 20  4  0
 15 22  4  0
 16 18  4  0
 16 25  2  0
 16 28  4  0
 21 28  4  0
 24 27  1  0
M  END
$$$$

 Created by Python create_sdf_string function

 28 31  0  0  0  0  0  0  0  0999 V2000
   -1.0054  -13.0622   19.1198 C   0  0  0  0  0  0  0  0  0  0  0  0
    3.1478   -8.5360   28.5161 C   0  0  0  0  0  0  0  0  0  0  0  0
    0.5798   -7.1906   27.9330 C   0  0  0  0  0  0  0  0  0  0  0  0
    0.3978   -5.1561   26.6955 C   0  0  0  0  0  0  0  0  0  0  0  0
    2.3063  -10.0533   30.0125 C   0  0  0  0  0  0  0  0  0  0  0  0
    1.8591   -6.8254   27.4685 N   0  0  0  0  0  0  0  0  0  0  0  0
   -0.2167  -12.1055   18.5568 C   0  0  0  0  0  0  0  0  0  0  0  0
   -2.0661  -10.6994   18.1916 C   0  0  0  0  0  0  0  0  0  0  0  0
    5.2703   -7.5691   27.1123 C   0  0  0  0  0  0  0  0  0  0  0  0
    1.6204   -9.9887   17.2935 C   0  0  0  0  0  0  0  0  0  0  0  0
    1.8931   -7.9265   16.2047 C   0  0  0  0  0  0  0  0  0  0  0  0
    2.4396   -9.0801   16.7132 C   0  0  0  0  0  0  0  0  0  0  0  0
   -0.2575   -8.6234   16.8582 C   0  0  0  0  0  0  0  0  0  0  0  0
    4.0614   -7.0367   27.0106 N   0  0  0  0  0  0  0  0  0  0  0  0
   -2.9133  -11.6279   18.7578 C   0  0  0  0  0  0  0  0  0  0  0  0
    4.5688  -10.1291   29.5758 C   0  0  0  0  0  0  0  0  0  0  0  0
    2.1008   -9.0410   29.1852 N   0  0  0  0  0  0  0  0  0  0  0  0
    3.4829  -10.5697   30.2091 N   0  0  0  0  0  0  0  0  0  0  0  0
   -0.3363   -6.1172   27.5628 C   0  0  0  0  0  0  0  0  0  0  0  0
    3.0331   -7.4400   27.6362 C   0  0  0  0  0  0  0  0  0  0  0  0
    5.4553   -8.5933   27.9644 C   0  0  0  0  0  0  0  0  0  0  0  0
   -2.3870  -12.8440   19.2512 C   0  0  0  0  0  0  0  0  0  0  0  0
    0.5331   -7.6964   16.2751 C   0  0  0  0  0  0  0  0  0  0  0  0
   -0.6740  -10.8737   18.0482 C   0  0  0  0  0  0  0  0  0  0  0  0
    5.6751  -10.5870   29.7637 O   0  0  0  0  0  0  0  0  0  0  0  0
    1.7612   -5.6483   26.7172 C   0  0  0  0  0  0  0  0  0  0  0  0
    0.2221   -9.8326   17.4055 C   0  0  0  0  0  0  0  0  0  0  0  0
    4.3850   -9.0730   28.6745 C   0  0  0  0  0  0  0  0  0  0  0  0
  1  7  4  0
  1 22  4  0
  2 17  4  0
  2 20  4  0
  2 28  4  0
  3  6  1  0
  3 19  1  0
  4 19  1  0
  4 26  1  0
  5 17  4  0
  5 18  4  0
  6 20  1  0
  6 26  1  0
  7 24  4  0
  8 15  4  0
  8 24  4  0
  9 14  4  0
  9 21  4  0
 10 12  4  0
 10 27  4  0
 11 12  4  0
 11 23  4  0
 13 23  4  0
 13 27  4  0
 14 20  4  0
 15 22  4  0
 16 18  4  0
 16 25  2  0
 16 28  4  0
 21 28  4  0
 24 27  1  0
M  END
$$$$

 Created by Python create_sdf_string function

 28 31  0  0  0  0  0  0  0  0999 V2000
   -1.0054  -13.0622   19.1198 C   0  0  0  0  0  0  0  0  0  0  0  0
    3.1478   -8.5360   28.5161 C   0  0  0  0  0  0  0  0  0  0  0  0
    0.5798   -7.1906   27.9330 C   0  0  0  0  0  0  0  0  0  0  0  0
    0.3978   -5.1561   26.6955 C   0  0  0  0  0  0  0  0  0  0  0  0
    2.3063  -10.0533   30.0125 C   0  0  0  0  0  0  0  0  0  0  0  0
    1.8591   -6.8254   27.4685 N   0  0  0  0  0  0  0  0  0  0  0  0
   -0.2167  -12.1055   18.5568 C   0  0  0  0  0  0  0  0  0  0  0  0
   -2.0661  -10.6994   18.1916 C   0  0  0  0  0  0  0  0  0  0  0  0
    5.2703   -7.5691   27.1123 C   0  0  0  0  0  0  0  0  0  0  0  0
    1.6204   -9.9887   17.2935 C   0  0  0  0  0  0  0  0  0  0  0  0
    1.8931   -7.9265   16.2047 C   0  0  0  0  0  0  0  0  0  0  0  0
    2.4396   -9.0801   16.7132 C   0  0  0  0  0  0  0  0  0  0  0  0
   -0.2575   -8.6234   16.8582 C   0  0  0  0  0  0  0  0  0  0  0  0
    4.0614   -7.0367   27.0106 N   0  0  0  0  0  0  0  0  0  0  0  0
   -2.9133  -11.6279   18.7578 C   0  0  0  0  0  0  0  0  0  0  0  0
    4.5688  -10.1291   29.5758 C   0  0  0  0  0  0  0  0  0  0  0  0
    2.1008   -9.0410   29.1852 N   0  0  0  0  0  0  0  0  0  0  0  0
    3.4829  -10.5697   30.2091 N   0  0  0  0  0  0  0  0  0  0  0  0
   -0.3363   -6.1172   27.5628 C   0  0  0  0  0  0  0  0  0  0  0  0
    3.0331   -7.4400   27.6362 C   0  0  0  0  0  0  0  0  0  0  0  0
    5.4553   -8.5933   27.9644 C   0  0  0  0  0  0  0  0  0  0  0  0
   -2.3870  -12.8440   19.2512 C   0  0  0  0  0  0  0  0  0  0  0  0
    0.5331   -7.6964   16.2751 C   0  0  0  0  0  0  0  0  0  0  0  0
   -0.6740  -10.8737   18.0482 C   0  0  0  0  0  0  0  0  0  0  0  0
    5.6751  -10.5870   29.7637 O   0  0  0  0  0  0  0  0  0  0  0  0
    1.7612   -5.6483   26.7172 C   0  0  0  0  0  0  0  0  0  0  0  0
    0.2221   -9.8326   17.4055 C   0  0  0  0  0  0  0  0  0  0  0  0
    4.3850   -9.0730   28.6745 C   0  0  0  0  0  0  0  0  0  0  0  0
  1  7  4  0
  1 22  4  0
  2 17  4  0
  2 20  4  0
  2 28  4  0
  3  6  1  0
  3 19  1  0
  4 19  1  0
  4 26  1  0
  5 17  4  0
  5 18  4  0
  6 20  1  0
  6 26  1  0
  7 24  4  0
  8 15  4  0
  8 24  4  0
  9 14  4  0
  9 21  4  0
 10 12  4  0
 10 27  4  0
 11 12  4  0
 11 23  4  0
 13 23  4  0
 13 27  4  0
 14 20  4  0
 15 22  4  0
 16 18  4  0
 16 25  2  0
 16 28  4  0
 21 28  4  0
 24 27  1  0
M  END
$$$$

 Created by Python create_sdf_string function

 28 31  0  0  0  0  0  0  0  0999 V2000
   -1.0054  -13.0622   19.1198 C   0  0  0  0  0  0  0  0  0  0  0  0
    3.1478   -8.5360   28.5161 C   0  0  0  0  0  0  0  0  0  0  0  0
    0.5798   -7.1906   27.9330 C   0  0  0  0  0  0  0  0  0  0  0  0
    0.3978   -5.1561   26.6955 C   0  0  0  0  0  0  0  0  0  0  0  0
    2.3063  -10.0533   30.0125 C   0  0  0  0  0  0  0  0  0  0  0  0
    1.8591   -6.8254   27.4685 N   0  0  0  0  0  0  0  0  0  0  0  0
   -0.2167  -12.1055   18.5568 C   0  0  0  0  0  0  0  0  0  0  0  0
   -2.0661  -10.6994   18.1916 C   0  0  0  0  0  0  0  0  0  0  0  0
    5.2703   -7.5691   27.1123 C   0  0  0  0  0  0  0  0  0  0  0  0
    1.6204   -9.9887   17.2935 C   0  0  0  0  0  0  0  0  0  0  0  0
    1.8931   -7.9265   16.2047 C   0  0  0  0  0  0  0  0  0  0  0  0
    2.4396   -9.0801   16.7132 C   0  0  0  0  0  0  0  0  0  0  0  0
   -0.2575   -8.6234   16.8582 C   0  0  0  0  0  0  0  0  0  0  0  0
    4.0614   -7.0367   27.0106 N   0  0  0  0  0  0  0  0  0  0  0  0
   -2.9133  -11.6279   18.7578 C   0  0  0  0  0  0  0  0  0  0  0  0
    4.5688  -10.1291   29.5758 C   0  0  0  0  0  0  0  0  0  0  0  0
    2.1008   -9.0410   29.1852 N   0  0  0  0  0  0  0  0  0  0  0  0
    3.4829  -10.5697   30.2091 N   0  0  0  0  0  0  0  0  0  0  0  0
   -0.3363   -6.1172   27.5628 C   0  0  0  0  0  0  0  0  0  0  0  0
    3.0331   -7.4400   27.6362 C   0  0  0  0  0  0  0  0  0  0  0  0
    5.4553   -8.5933   27.9644 C   0  0  0  0  0  0  0  0  0  0  0  0
   -2.3870  -12.8440   19.2512 C   0  0  0  0  0  0  0  0  0  0  0  0
    0.5331   -7.6964   16.2751 C   0  0  0  0  0  0  0  0  0  0  0  0
   -0.6740  -10.8737   18.0482 C   0  0  0  0  0  0  0  0  0  0  0  0
    5.6751  -10.5870   29.7637 O   0  0  0  0  0  0  0  0  0  0  0  0
    1.7612   -5.6483   26.7172 C   0  0  0  0  0  0  0  0  0  0  0  0
    0.2221   -9.8326   17.4055 C   0  0  0  0  0  0  0  0  0  0  0  0
    4.3850   -9.0730   28.6745 C   0  0  0  0  0  0  0  0  0  0  0  0
  1  7  4  0
  1 22  4  0
  2 17  4  0
  2 20  4  0
  2 28  4  0
  3  6  1  0
  3 19  1  0
  4 19  1  0
  4 26  1  0
  5 17  4  0
  5 18  4  0
  6 20  1  0
  6 26  1  0
  7 24  4  0
  8 15  4  0
  8 24  4  0
  9 14  4  0
  9 21  4  0
 10 12  4  0
 10 27  4  0
 11 12  4  0
 11 23  4  0
 13 23  4  0
 13 27  4  0
 14 20  4  0
 15 22  4  0
 16 18  4  0
 16 25  2  0
 16 28  4  0
 21 28  4  0
 24 27  1  0
M  END
$$$$

 Created by Python create_sdf_string function

 28 31  0  0  0  0  0  0  0  0999 V2000
   -1.0054  -13.0622   19.1198 C   0  0  0  0  0  0  0  0  0  0  0  0
    3.1478   -8.5360   28.5161 C   0  0  0  0  0  0  0  0  0  0  0  0
    0.5798   -7.1906   27.9330 C   0  0  0  0  0  0  0  0  0  0  0  0
    0.3978   -5.1561   26.6955 C   0  0  0  0  0  0  0  0  0  0  0  0
    2.3063  -10.0533   30.0125 C   0  0  0  0  0  0  0  0  0  0  0  0
    1.8591   -6.8254   27.4685 N   0  0  0  0  0  0  0  0  0  0  0  0
   -0.2167  -12.1055   18.5568 C   0  0  0  0  0  0  0  0  0  0  0  0
   -2.0661  -10.6994   18.1916 C   0  0  0  0  0  0  0  0  0  0  0  0
    5.2703   -7.5691   27.1123 C   0  0  0  0  0  0  0  0  0  0  0  0
    1.6204   -9.9887   17.2935 C   0  0  0  0  0  0  0  0  0  0  0  0
    1.8931   -7.9265   16.2047 C   0  0  0  0  0  0  0  0  0  0  0  0
    2.4396   -9.0801   16.7132 C   0  0  0  0  0  0  0  0  0  0  0  0
   -0.2575   -8.6234   16.8582 C   0  0  0  0  0  0  0  0  0  0  0  0
    4.0614   -7.0367   27.0106 N   0  0  0  0  0  0  0  0  0  0  0  0
   -2.9133  -11.6279   18.7578 C   0  0  0  0  0  0  0  0  0  0  0  0
    4.5688  -10.1291   29.5758 C   0  0  0  0  0  0  0  0  0  0  0  0
    2.1008   -9.0410   29.1852 N   0  0  0  0  0  0  0  0  0  0  0  0
    3.4829  -10.5697   30.2091 N   0  0  0  0  0  0  0  0  0  0  0  0
   -0.3363   -6.1172   27.5628 C   0  0  0  0  0  0  0  0  0  0  0  0
    3.0331   -7.4400   27.6362 C   0  0  0  0  0  0  0  0  0  0  0  0
    5.4553   -8.5933   27.9644 C   0  0  0  0  0  0  0  0  0  0  0  0
   -2.3870  -12.8440   19.2512 C   0  0  0  0  0  0  0  0  0  0  0  0
    0.5331   -7.6964   16.2751 C   0  0  0  0  0  0  0  0  0  0  0  0
   -0.6740  -10.8737   18.0482 C   0  0  0  0  0  0  0  0  0  0  0  0
    5.6751  -10.5870   29.7637 O   0  0  0  0  0  0  0  0  0  0  0  0
    1.7612   -5.6483   26.7172 C   0  0  0  0  0  0  0  0  0  0  0  0
    0.2221   -9.8326   17.4055 C   0  0  0  0  0  0  0  0  0  0  0  0
    4.3850   -9.0730   28.6745 C   0  0  0  0  0  0  0  0  0  0  0  0
  1  7  4  0
  1 22  4  0
  2 17  4  0
  2 20  4  0
  2 28  4  0
  3  6  1  0
  3 19  1  0
  4 19  1  0
  4 26  1  0
  5 17  4  0
  5 18  4  0
  6 20  1  0
  6 26  1  0
  7 24  4  0
  8 15  4  0
  8 24  4  0
  9 14  4  0
  9 21  4  0
 10 12  4  0
 10 27  4  0
 11 12  4  0
 11 23  4  0
 13 23  4  0
 13 27  4  0
 14 20  4  0
 15 22  4  0
 16 18  4  0
 16 25  2  0
 16 28  4  0
 21 28  4  0
 24 27  1  0
M  END
$$$$

 Created by Python create_sdf_string function

 28 31  0  0  0  0  0  0  0  0999 V2000
   -1.0054  -13.0622   19.1198 C   0  0  0  0  0  0  0  0  0  0  0  0
    3.1478   -8.5360   28.5161 C   0  0  0  0  0  0  0  0  0  0  0  0
    0.5798   -7.1906   27.9330 C   0  0  0  0  0  0  0  0  0  0  0  0
    0.3978   -5.1561   26.6955 C   0  0  0  0  0  0  0  0  0  0  0  0
    2.3063  -10.0533   30.0125 C   0  0  0  0  0  0  0  0  0  0  0  0
    1.8591   -6.8254   27.4685 N   0  0  0  0  0  0  0  0  0  0  0  0
   -0.2167  -12.1055   18.5568 C   0  0  0  0  0  0  0  0  0  0  0  0
   -2.0661  -10.6994   18.1916 C   0  0  0  0  0  0  0  0  0  0  0  0
    5.2703   -7.5691   27.1123 C   0  0  0  0  0  0  0  0  0  0  0  0
    1.6204   -9.9887   17.2935 C   0  0  0  0  0  0  0  0  0  0  0  0
    1.8931   -7.9265   16.2047 C   0  0  0  0  0  0  0  0  0  0  0  0
    2.4396   -9.0801   16.7132 C   0  0  0  0  0  0  0  0  0  0  0  0
   -0.2575   -8.6234   16.8582 C   0  0  0  0  0  0  0  0  0  0  0  0
    4.0614   -7.0367   27.0106 N   0  0  0  0  0  0  0  0  0  0  0  0
   -2.9133  -11.6279   18.7578 C   0  0  0  0  0  0  0  0  0  0  0  0
    4.5688  -10.1291   29.5758 C   0  0  0  0  0  0  0  0  0  0  0  0
    2.1008   -9.0410   29.1852 N   0  0  0  0  0  0  0  0  0  0  0  0
    3.4829  -10.5697   30.2091 N   0  0  0  0  0  0  0  0  0  0  0  0
   -0.3363   -6.1172   27.5628 C   0  0  0  0  0  0  0  0  0  0  0  0
    3.0331   -7.4400   27.6362 C   0  0  0  0  0  0  0  0  0  0  0  0
    5.4553   -8.5933   27.9644 C   0  0  0  0  0  0  0  0  0  0  0  0
   -2.3870  -12.8440   19.2512 C   0  0  0  0  0  0  0  0  0  0  0  0
    0.5331   -7.6964   16.2751 C   0  0  0  0  0  0  0  0  0  0  0  0
   -0.6740  -10.8737   18.0482 C   0  0  0  0  0  0  0  0  0  0  0  0
    5.6751  -10.5870   29.7637 O   0  0  0  0  0  0  0  0  0  0  0  0
    1.7612   -5.6483   26.7172 C   0  0  0  0  0  0  0  0  0  0  0  0
    0.2221   -9.8326   17.4055 C   0  0  0  0  0  0  0  0  0  0  0  0
    4.3850   -9.0730   28.6745 C   0  0  0  0  0  0  0  0  0  0  0  0
  1  7  4  0
  1 22  4  0
  2 17  4  0
  2 20  4  0
  2 28  4  0
  3  6  1  0
  3 19  1  0
  4 19  1  0
  4 26  1  0
  5 17  4  0
  5 18  4  0
  6 20  1  0
  6 26  1  0
  7 24  4  0
  8 15  4  0
  8 24  4  0
  9 14  4  0
  9 21  4  0
 10 12  4  0
 10 27  4  0
 11 12  4  0
 11 23  4  0
 13 23  4  0
 13 27  4  0
 14 20  4  0
 15 22  4  0
 16 18  4  0
 16 25  2  0
 16 28  4  0
 21 28  4  0
 24 27  1  0
M  END
$$$$

 Created by Python create_sdf_string function

 28 31  0  0  0  0  0  0  0  0999 V2000
   -1.0054  -13.0622   19.1198 C   0  0  0  0  0  0  0  0  0  0  0  0
    3.1478   -8.5360   28.5161 C   0  0  0  0  0  0  0  0  0  0  0  0
    0.5798   -7.1906   27.9330 C   0  0  0  0  0  0  0  0  0  0  0  0
    0.3978   -5.1561   26.6955 C   0  0  0  0  0  0  0  0  0  0  0  0
    2.3063  -10.0533   30.0125 C   0  0  0  0  0  0  0  0  0  0  0  0
    1.8591   -6.8254   27.4685 N   0  0  0  0  0  0  0  0  0  0  0  0
   -0.2167  -12.1055   18.5568 C   0  0  0  0  0  0  0  0  0  0  0  0
   -2.0661  -10.6994   18.1916 C   0  0  0  0  0  0  0  0  0  0  0  0
    5.2703   -7.5691   27.1123 C   0  0  0  0  0  0  0  0  0  0  0  0
    1.6204   -9.9887   17.2935 C   0  0  0  0  0  0  0  0  0  0  0  0
    1.8931   -7.9265   16.2047 C   0  0  0  0  0  0  0  0  0  0  0  0
    2.4396   -9.0801   16.7132 C   0  0  0  0  0  0  0  0  0  0  0  0
   -0.2575   -8.6234   16.8582 C   0  0  0  0  0  0  0  0  0  0  0  0
    4.0614   -7.0367   27.0106 N   0  0  0  0  0  0  0  0  0  0  0  0
   -2.9133  -11.6279   18.7578 C   0  0  0  0  0  0  0  0  0  0  0  0
    4.5688  -10.1291   29.5758 C   0  0  0  0  0  0  0  0  0  0  0  0
    2.1008   -9.0410   29.1852 N   0  0  0  0  0  0  0  0  0  0  0  0
    3.4829  -10.5697   30.2091 N   0  0  0  0  0  0  0  0  0  0  0  0
   -0.3363   -6.1172   27.5628 C   0  0  0  0  0  0  0  0  0  0  0  0
    3.0331   -7.4400   27.6362 C   0  0  0  0  0  0  0  0  0  0  0  0
    5.4553   -8.5933   27.9644 C   0  0  0  0  0  0  0  0  0  0  0  0
   -2.3870  -12.8440   19.2512 C   0  0  0  0  0  0  0  0  0  0  0  0
    0.5331   -7.6964   16.2751 C   0  0  0  0  0  0  0  0  0  0  0  0
   -0.6740  -10.8737   18.0482 C   0  0  0  0  0  0  0  0  0  0  0  0
    5.6751  -10.5870   29.7637 O   0  0  0  0  0  0  0  0  0  0  0  0
    1.7612   -5.6483   26.7172 C   0  0  0  0  0  0  0  0  0  0  0  0
    0.2221   -9.8326   17.4055 C   0  0  0  0  0  0  0  0  0  0  0  0
    4.3850   -9.0730   28.6745 C   0  0  0  0  0  0  0  0  0  0  0  0
  1  7  4  0
  1 22  4  0
  2 17  4  0
  2 20  4  0
  2 28  4  0
  3  6  1  0
  3 19  1  0
  4 19  1  0
  4 26  1  0
  5 17  4  0
  5 18  4  0
  6 20  1  0
  6 26  1  0
  7 24  4  0
  8 15  4  0
  8 24  4  0
  9 14  4  0
  9 21  4  0
 10 12  4  0
 10 27  4  0
 11 12  4  0
 11 23  4  0
 13 23  4  0
 13 27  4  0
 14 20  4  0
 15 22  4  0
 16 18  4  0
 16 25  2  0
 16 28  4  0
 21 28  4  0
 24 27  1  0
M  END
$$$$

 Created by Python create_sdf_string function

 28 31  0  0  0  0  0  0  0  0999 V2000
   -1.0054  -13.0622   19.1198 C   0  0  0  0  0  0  0  0  0  0  0  0
    3.1478   -8.5360   28.5161 C   0  0  0  0  0  0  0  0  0  0  0  0
    0.5798   -7.1906   27.9330 C   0  0  0  0  0  0  0  0  0  0  0  0
    0.3978   -5.1561   26.6955 C   0  0  0  0  0  0  0  0  0  0  0  0
    2.3063  -10.0533   30.0125 C   0  0  0  0  0  0  0  0  0  0  0  0
    1.8591   -6.8254   27.4685 N   0  0  0  0  0  0  0  0  0  0  0  0
   -0.2167  -12.1055   18.5568 C   0  0  0  0  0  0  0  0  0  0  0  0
   -2.0661  -10.6994   18.1916 C   0  0  0  0  0  0  0  0  0  0  0  0
    5.2703   -7.5691   27.1123 C   0  0  0  0  0  0  0  0  0  0  0  0
    1.6204   -9.9887   17.2935 C   0  0  0  0  0  0  0  0  0  0  0  0
    1.8931   -7.9265   16.2047 C   0  0  0  0  0  0  0  0  0  0  0  0
    2.4396   -9.0801   16.7132 C   0  0  0  0  0  0  0  0  0  0  0  0
   -0.2575   -8.6234   16.8582 C   0  0  0  0  0  0  0  0  0  0  0  0
    4.0614   -7.0367   27.0106 N   0  0  0  0  0  0  0  0  0  0  0  0
   -2.9133  -11.6279   18.7578 C   0  0  0  0  0  0  0  0  0  0  0  0
    4.5688  -10.1291   29.5758 C   0  0  0  0  0  0  0  0  0  0  0  0
    2.1008   -9.0410   29.1852 N   0  0  0  0  0  0  0  0  0  0  0  0
    3.4829  -10.5697   30.2091 N   0  0  0  0  0  0  0  0  0  0  0  0
   -0.3363   -6.1172   27.5628 C   0  0  0  0  0  0  0  0  0  0  0  0
    3.0331   -7.4400   27.6362 C   0  0  0  0  0  0  0  0  0  0  0  0
    5.4553   -8.5933   27.9644 C   0  0  0  0  0  0  0  0  0  0  0  0
   -2.3870  -12.8440   19.2512 C   0  0  0  0  0  0  0  0  0  0  0  0
    0.5331   -7.6964   16.2751 C   0  0  0  0  0  0  0  0  0  0  0  0
   -0.6740  -10.8737   18.0482 C   0  0  0  0  0  0  0  0  0  0  0  0
    5.6751  -10.5870   29.7637 O   0  0  0  0  0  0  0  0  0  0  0  0
    1.7612   -5.6483   26.7172 C   0  0  0  0  0  0  0  0  0  0  0  0
    0.2221   -9.8326   17.4055 C   0  0  0  0  0  0  0  0  0  0  0  0
    4.3850   -9.0730   28.6745 C   0  0  0  0  0  0  0  0  0  0  0  0
  1  7  4  0
  1 22  4  0
  2 17  4  0
  2 20  4  0
  2 28  4  0
  3  6  1  0
  3 19  1  0
  4 19  1  0
  4 26  1  0
  5 17  4  0
  5 18  4  0
  6 20  1  0
  6 26  1  0
  7 24  4  0
  8 15  4  0
  8 24  4  0
  9 14  4  0
  9 21  4  0
 10 12  4  0
 10 27  4  0
 11 12  4  0
 11 23  4  0
 13 23  4  0
 13 27  4  0
 14 20  4  0
 15 22  4  0
 16 18  4  0
 16 25  2  0
 16 28  4  0
 21 28  4  0
 24 27  1  0
M  END
$$$$

 Created by Python create_sdf_string function

 28 31  0  0  0  0  0  0  0  0999 V2000
   -1.0054  -13.0622   19.1198 C   0  0  0  0  0  0  0  0  0  0  0  0
    3.1478   -8.5360   28.5161 C   0  0  0  0  0  0  0  0  0  0  0  0
    0.5798   -7.1906   27.9330 C   0  0  0  0  0  0  0  0  0  0  0  0
    0.3978   -5.1561   26.6955 C   0  0  0  0  0  0  0  0  0  0  0  0
    2.3063  -10.0533   30.0125 C   0  0  0  0  0  0  0  0  0  0  0  0
    1.8591   -6.8254   27.4685 N   0  0  0  0  0  0  0  0  0  0  0  0
   -0.2167  -12.1055   18.5568 C   0  0  0  0  0  0  0  0  0  0  0  0
   -2.0661  -10.6994   18.1916 C   0  0  0  0  0  0  0  0  0  0  0  0
    5.2703   -7.5691   27.1123 C   0  0  0  0  0  0  0  0  0  0  0  0
    1.6204   -9.9887   17.2935 C   0  0  0  0  0  0  0  0  0  0  0  0
    1.8931   -7.9265   16.2047 C   0  0  0  0  0  0  0  0  0  0  0  0
    2.4396   -9.0801   16.7132 C   0  0  0  0  0  0  0  0  0  0  0  0
   -0.2575   -8.6234   16.8582 C   0  0  0  0  0  0  0  0  0  0  0  0
    4.0614   -7.0367   27.0106 N   0  0  0  0  0  0  0  0  0  0  0  0
   -2.9133  -11.6279   18.7578 C   0  0  0  0  0  0  0  0  0  0  0  0
    4.5688  -10.1291   29.5758 C   0  0  0  0  0  0  0  0  0  0  0  0
    2.1008   -9.0410   29.1852 N   0  0  0  0  0  0  0  0  0  0  0  0
    3.4829  -10.5697   30.2091 N   0  0  0  0  0  0  0  0  0  0  0  0
   -0.3363   -6.1172   27.5628 C   0  0  0  0  0  0  0  0  0  0  0  0
    3.0331   -7.4400   27.6362 C   0  0  0  0  0  0  0  0  0  0  0  0
    5.4553   -8.5933   27.9644 C   0  0  0  0  0  0  0  0  0  0  0  0
   -2.3870  -12.8440   19.2512 C   0  0  0  0  0  0  0  0  0  0  0  0
    0.5331   -7.6964   16.2751 C   0  0  0  0  0  0  0  0  0  0  0  0
   -0.6740  -10.8737   18.0482 C   0  0  0  0  0  0  0  0  0  0  0  0
    5.6751  -10.5870   29.7637 O   0  0  0  0  0  0  0  0  0  0  0  0
    1.7612   -5.6483   26.7172 C   0  0  0  0  0  0  0  0  0  0  0  0
    0.2221   -9.8326   17.4055 C   0  0  0  0  0  0  0  0  0  0  0  0
    4.3850   -9.0730   28.6745 C   0  0  0  0  0  0  0  0  0  0  0  0
  1  7  4  0
  1 22  4  0
  2 17  4  0
  2 20  4  0
  2 28  4  0
  3  6  1  0
  3 19  1  0
  4 19  1  0
  4 26  1  0
  5 17  4  0
  5 18  4  0
  6 20  1  0
  6 26  1  0
  7 24  4  0
  8 15  4  0
  8 24  4  0
  9 14  4  0
  9 21  4  0
 10 12  4  0
 10 27  4  0
 11 12  4  0
 11 23  4  0
 13 23  4  0
 13 27  4  0
 14 20  4  0
 15 22  4  0
 16 18  4  0
 16 25  2  0
 16 28  4  0
 21 28  4  0
 24 27  1  0
M  END
$$$$

 Created by Python create_sdf_string function

 28 31  0  0  0  0  0  0  0  0999 V2000
   -1.0054  -13.0622   19.1198 C   0  0  0  0  0  0  0  0  0  0  0  0
    3.1478   -8.5360   28.5161 C   0  0  0  0  0  0  0  0  0  0  0  0
    0.5798   -7.1906   27.9330 C   0  0  0  0  0  0  0  0  0  0  0  0
    0.3978   -5.1561   26.6955 C   0  0  0  0  0  0  0  0  0  0  0  0
    2.3063  -10.0533   30.0125 C   0  0  0  0  0  0  0  0  0  0  0  0
    1.8591   -6.8254   27.4685 N   0  0  0  0  0  0  0  0  0  0  0  0
   -0.2167  -12.1055   18.5568 C   0  0  0  0  0  0  0  0  0  0  0  0
   -2.0661  -10.6994   18.1916 C   0  0  0  0  0  0  0  0  0  0  0  0
    5.2703   -7.5691   27.1123 C   0  0  0  0  0  0  0  0  0  0  0  0
    1.6204   -9.9887   17.2935 C   0  0  0  0  0  0  0  0  0  0  0  0
    1.8931   -7.9265   16.2047 C   0  0  0  0  0  0  0  0  0  0  0  0
    2.4396   -9.0801   16.7132 C   0  0  0  0  0  0  0  0  0  0  0  0
   -0.2575   -8.6234   16.8582 C   0  0  0  0  0  0  0  0  0  0  0  0
    4.0614   -7.0367   27.0106 N   0  0  0  0  0  0  0  0  0  0  0  0
   -2.9133  -11.6279   18.7578 C   0  0  0  0  0  0  0  0  0  0  0  0
    4.5688  -10.1291   29.5758 C   0  0  0  0  0  0  0  0  0  0  0  0
    2.1008   -9.0410   29.1852 N   0  0  0  0  0  0  0  0  0  0  0  0
    3.4829  -10.5697   30.2091 N   0  0  0  0  0  0  0  0  0  0  0  0
   -0.3363   -6.1172   27.5628 C   0  0  0  0  0  0  0  0  0  0  0  0
    3.0331   -7.4400   27.6362 C   0  0  0  0  0  0  0  0  0  0  0  0
    5.4553   -8.5933   27.9644 C   0  0  0  0  0  0  0  0  0  0  0  0
   -2.3870  -12.8440   19.2512 C   0  0  0  0  0  0  0  0  0  0  0  0
    0.5331   -7.6964   16.2751 C   0  0  0  0  0  0  0  0  0  0  0  0
   -0.6740  -10.8737   18.0482 C   0  0  0  0  0  0  0  0  0  0  0  0
    5.6751  -10.5870   29.7637 O   0  0  0  0  0  0  0  0  0  0  0  0
    1.7612   -5.6483   26.7172 C   0  0  0  0  0  0  0  0  0  0  0  0
    0.2221   -9.8326   17.4055 C   0  0  0  0  0  0  0  0  0  0  0  0
    4.3850   -9.0730   28.6745 C   0  0  0  0  0  0  0  0  0  0  0  0
  1  7  4  0
  1 22  4  0
  2 17  4  0
  2 20  4  0
  2 28  4  0
  3  6  1  0
  3 19  1  0
  4 19  1  0
  4 26  1  0
  5 17  4  0
  5 18  4  0
  6 20  1  0
  6 26  1  0
  7 24  4  0
  8 15  4  0
  8 24  4  0
  9 14  4  0
  9 21  4  0
 10 12  4  0
 10 27  4  0
 11 12  4  0
 11 23  4  0
 13 23  4  0
 13 27  4  0
 14 20  4  0
 15 22  4  0
 16 18  4  0
 16 25  2  0
 16 28  4  0
 21 28  4  0
 24 27  1  0
M  END
$$$$

 Created by Python create_sdf_string function

 28 31  0  0  0  0  0  0  0  0999 V2000
   -1.0054  -13.0622   19.1198 C   0  0  0  0  0  0  0  0  0  0  0  0
    3.1478   -8.5360   28.5161 C   0  0  0  0  0  0  0  0  0  0  0  0
    0.5798   -7.1906   27.9330 C   0  0  0  0  0  0  0  0  0  0  0  0
    0.3978   -5.1561   26.6955 C   0  0  0  0  0  0  0  0  0  0  0  0
    2.3063  -10.0533   30.0125 C   0  0  0  0  0  0  0  0  0  0  0  0
    1.8591   -6.8254   27.4685 N   0  0  0  0  0  0  0  0  0  0  0  0
   -0.2167  -12.1055   18.5568 C   0  0  0  0  0  0  0  0  0  0  0  0
   -2.0661  -10.6994   18.1916 C   0  0  0  0  0  0  0  0  0  0  0  0
    5.2703   -7.5691   27.1123 C   0  0  0  0  0  0  0  0  0  0  0  0
    1.6204   -9.9887   17.2935 C   0  0  0  0  0  0  0  0  0  0  0  0
    1.8931   -7.9265   16.2047 C   0  0  0  0  0  0  0  0  0  0  0  0
    2.4396   -9.0801   16.7132 C   0  0  0  0  0  0  0  0  0  0  0  0
   -0.2575   -8.6234   16.8582 C   0  0  0  0  0  0  0  0  0  0  0  0
    4.0614   -7.0367   27.0106 N   0  0  0  0  0  0  0  0  0  0  0  0
   -2.9133  -11.6279   18.7578 C   0  0  0  0  0  0  0  0  0  0  0  0
    4.5688  -10.1291   29.5758 C   0  0  0  0  0  0  0  0  0  0  0  0
    2.1008   -9.0410   29.1852 N   0  0  0  0  0  0  0  0  0  0  0  0
    3.4829  -10.5697   30.2091 N   0  0  0  0  0  0  0  0  0  0  0  0
   -0.3363   -6.1172   27.5628 C   0  0  0  0  0  0  0  0  0  0  0  0
    3.0331   -7.4400   27.6362 C   0  0  0  0  0  0  0  0  0  0  0  0
    5.4553   -8.5933   27.9644 C   0  0  0  0  0  0  0  0  0  0  0  0
   -2.3870  -12.8440   19.2512 C   0  0  0  0  0  0  0  0  0  0  0  0
    0.5331   -7.6964   16.2751 C   0  0  0  0  0  0  0  0  0  0  0  0
   -0.6740  -10.8737   18.0482 C   0  0  0  0  0  0  0  0  0  0  0  0
    5.6751  -10.5870   29.7637 O   0  0  0  0  0  0  0  0  0  0  0  0
    1.7612   -5.6483   26.7172 C   0  0  0  0  0  0  0  0  0  0  0  0
    0.2221   -9.8326   17.4055 C   0  0  0  0  0  0  0  0  0  0  0  0
    4.3850   -9.0730   28.6745 C   0  0  0  0  0  0  0  0  0  0  0  0
  1  7  4  0
  1 22  4  0
  2 17  4  0
  2 20  4  0
  2 28  4  0
  3  6  1  0
  3 19  1  0
  4 19  1  0
  4 26  1  0
  5 17  4  0
  5 18  4  0
  6 20  1  0
  6 26  1  0
  7 24  4  0
  8 15  4  0
  8 24  4  0
  9 14  4  0
  9 21  4  0
 10 12  4  0
 10 27  4  0
 11 12  4  0
 11 23  4  0
 13 23  4  0
 13 27  4  0
 14 20  4  0
 15 22  4  0
 16 18  4  0
 16 25  2  0
 16 28  4  0
 21 28  4  0
 24 27  1  0
M  END
$$$$

 Created by Python create_sdf_string function

 28 31  0  0  0  0  0  0  0  0999 V2000
   -1.0054  -13.0622   19.1198 C   0  0  0  0  0  0  0  0  0  0  0  0
    3.1478   -8.5360   28.5161 C   0  0  0  0  0  0  0  0  0  0  0  0
    0.5798   -7.1906   27.9330 C   0  0  0  0  0  0  0  0  0  0  0  0
    0.3978   -5.1561   26.6955 C   0  0  0  0  0  0  0  0  0  0  0  0
    2.3063  -10.0533   30.0125 C   0  0  0  0  0  0  0  0  0  0  0  0
    1.8591   -6.8254   27.4685 N   0  0  0  0  0  0  0  0  0  0  0  0
   -0.2167  -12.1055   18.5568 C   0  0  0  0  0  0  0  0  0  0  0  0
   -2.0661  -10.6994   18.1916 C   0  0  0  0  0  0  0  0  0  0  0  0
    5.2703   -7.5691   27.1123 C   0  0  0  0  0  0  0  0  0  0  0  0
    1.6204   -9.9887   17.2935 C   0  0  0  0  0  0  0  0  0  0  0  0
    1.8931   -7.9265   16.2047 C   0  0  0  0  0  0  0  0  0  0  0  0
    2.4396   -9.0801   16.7132 C   0  0  0  0  0  0  0  0  0  0  0  0
   -0.2575   -8.6234   16.8582 C   0  0  0  0  0  0  0  0  0  0  0  0
    4.0614   -7.0367   27.0106 N   0  0  0  0  0  0  0  0  0  0  0  0
   -2.9133  -11.6279   18.7578 C   0  0  0  0  0  0  0  0  0  0  0  0
    4.5688  -10.1291   29.5758 C   0  0  0  0  0  0  0  0  0  0  0  0
    2.1008   -9.0410   29.1852 N   0  0  0  0  0  0  0  0  0  0  0  0
    3.4829  -10.5697   30.2091 N   0  0  0  0  0  0  0  0  0  0  0  0
   -0.3363   -6.1172   27.5628 C   0  0  0  0  0  0  0  0  0  0  0  0
    3.0331   -7.4400   27.6362 C   0  0  0  0  0  0  0  0  0  0  0  0
    5.4553   -8.5933   27.9644 C   0  0  0  0  0  0  0  0  0  0  0  0
   -2.3870  -12.8440   19.2512 C   0  0  0  0  0  0  0  0  0  0  0  0
    0.5331   -7.6964   16.2751 C   0  0  0  0  0  0  0  0  0  0  0  0
   -0.6740  -10.8737   18.0482 C   0  0  0  0  0  0  0  0  0  0  0  0
    5.6751  -10.5870   29.7637 O   0  0  0  0  0  0  0  0  0  0  0  0
    1.7612   -5.6483   26.7172 C   0  0  0  0  0  0  0  0  0  0  0  0
    0.2221   -9.8326   17.4055 C   0  0  0  0  0  0  0  0  0  0  0  0
    4.3850   -9.0730   28.6745 C   0  0  0  0  0  0  0  0  0  0  0  0
  1  7  4  0
  1 22  4  0
  2 17  4  0
  2 20  4  0
  2 28  4  0
  3  6  1  0
  3 19  1  0
  4 19  1  0
  4 26  1  0
  5 17  4  0
  5 18  4  0
  6 20  1  0
  6 26  1  0
  7 24  4  0
  8 15  4  0
  8 24  4  0
  9 14  4  0
  9 21  4  0
 10 12  4  0
 10 27  4  0
 11 12  4  0
 11 23  4  0
 13 23  4  0
 13 27  4  0
 14 20  4  0
 15 22  4  0
 16 18  4  0
 16 25  2  0
 16 28  4  0
 21 28  4  0
 24 27  1  0
M  END
$$$$

 Created by Python create_sdf_string function

 28 31  0  0  0  0  0  0  0  0999 V2000
   -1.0054  -13.0622   19.1198 C   0  0  0  0  0  0  0  0  0  0  0  0
    3.1478   -8.5360   28.5161 C   0  0  0  0  0  0  0  0  0  0  0  0
    0.5798   -7.1906   27.9330 C   0  0  0  0  0  0  0  0  0  0  0  0
    0.3978   -5.1561   26.6955 C   0  0  0  0  0  0  0  0  0  0  0  0
    2.3063  -10.0533   30.0125 C   0  0  0  0  0  0  0  0  0  0  0  0
    1.8591   -6.8254   27.4685 N   0  0  0  0  0  0  0  0  0  0  0  0
   -0.2167  -12.1055   18.5568 C   0  0  0  0  0  0  0  0  0  0  0  0
   -2.0661  -10.6994   18.1916 C   0  0  0  0  0  0  0  0  0  0  0  0
    5.2703   -7.5691   27.1123 C   0  0  0  0  0  0  0  0  0  0  0  0
    1.6204   -9.9887   17.2935 C   0  0  0  0  0  0  0  0  0  0  0  0
    1.8931   -7.9265   16.2047 C   0  0  0  0  0  0  0  0  0  0  0  0
    2.4396   -9.0801   16.7132 C   0  0  0  0  0  0  0  0  0  0  0  0
   -0.2575   -8.6234   16.8582 C   0  0  0  0  0  0  0  0  0  0  0  0
    4.0614   -7.0367   27.0106 N   0  0  0  0  0  0  0  0  0  0  0  0
   -2.9133  -11.6279   18.7578 C   0  0  0  0  0  0  0  0  0  0  0  0
    4.5688  -10.1291   29.5758 C   0  0  0  0  0  0  0  0  0  0  0  0
    2.1008   -9.0410   29.1852 N   0  0  0  0  0  0  0  0  0  0  0  0
    3.4829  -10.5697   30.2091 N   0  0  0  0  0  0  0  0  0  0  0  0
   -0.3363   -6.1172   27.5628 C   0  0  0  0  0  0  0  0  0  0  0  0
    3.0331   -7.4400   27.6362 C   0  0  0  0  0  0  0  0  0  0  0  0
    5.4553   -8.5933   27.9644 C   0  0  0  0  0  0  0  0  0  0  0  0
   -2.3870  -12.8440   19.2512 C   0  0  0  0  0  0  0  0  0  0  0  0
    0.5331   -7.6964   16.2751 C   0  0  0  0  0  0  0  0  0  0  0  0
   -0.6740  -10.8737   18.0482 C   0  0  0  0  0  0  0  0  0  0  0  0
    5.6751  -10.5870   29.7637 O   0  0  0  0  0  0  0  0  0  0  0  0
    1.7612   -5.6483   26.7172 C   0  0  0  0  0  0  0  0  0  0  0  0
    0.2221   -9.8326   17.4055 C   0  0  0  0  0  0  0  0  0  0  0  0
    4.3850   -9.0730   28.6745 C   0  0  0  0  0  0  0  0  0  0  0  0
  1  7  4  0
  1 22  4  0
  2 17  4  0
  2 20  4  0
  2 28  4  0
  3  6  1  0
  3 19  1  0
  4 19  1  0
  4 26  1  0
  5 17  4  0
  5 18  4  0
  6 20  1  0
  6 26  1  0
  7 24  4  0
  8 15  4  0
  8 24  4  0
  9 14  4  0
  9 21  4  0
 10 12  4  0
 10 27  4  0
 11 12  4  0
 11 23  4  0
 13 23  4  0
 13 27  4  0
 14 20  4  0
 15 22  4  0
 16 18  4  0
 16 25  2  0
 16 28  4  0
 21 28  4  0
 24 27  1  0
M  END
$$$$

 Created by Python create_sdf_string function

 28 31  0  0  0  0  0  0  0  0999 V2000
   -1.0054  -13.0622   19.1198 C   0  0  0  0  0  0  0  0  0  0  0  0
    3.1478   -8.5360   28.5161 C   0  0  0  0  0  0  0  0  0  0  0  0
    0.5798   -7.1906   27.9330 C   0  0  0  0  0  0  0  0  0  0  0  0
    0.3978   -5.1561   26.6955 C   0  0  0  0  0  0  0  0  0  0  0  0
    2.3063  -10.0533   30.0125 C   0  0  0  0  0  0  0  0  0  0  0  0
    1.8591   -6.8254   27.4685 N   0  0  0  0  0  0  0  0  0  0  0  0
   -0.2167  -12.1055   18.5568 C   0  0  0  0  0  0  0  0  0  0  0  0
   -2.0661  -10.6994   18.1916 C   0  0  0  0  0  0  0  0  0  0  0  0
    5.2703   -7.5691   27.1123 C   0  0  0  0  0  0  0  0  0  0  0  0
    1.6204   -9.9887   17.2935 C   0  0  0  0  0  0  0  0  0  0  0  0
    1.8931   -7.9265   16.2047 C   0  0  0  0  0  0  0  0  0  0  0  0
    2.4396   -9.0801   16.7132 C   0  0  0  0  0  0  0  0  0  0  0  0
   -0.2575   -8.6234   16.8582 C   0  0  0  0  0  0  0  0  0  0  0  0
    4.0614   -7.0367   27.0106 N   0  0  0  0  0  0  0  0  0  0  0  0
   -2.9133  -11.6279   18.7578 C   0  0  0  0  0  0  0  0  0  0  0  0
    4.5688  -10.1291   29.5758 C   0  0  0  0  0  0  0  0  0  0  0  0
    2.1008   -9.0410   29.1852 N   0  0  0  0  0  0  0  0  0  0  0  0
    3.4829  -10.5697   30.2091 N   0  0  0  0  0  0  0  0  0  0  0  0
   -0.3363   -6.1172   27.5628 C   0  0  0  0  0  0  0  0  0  0  0  0
    3.0331   -7.4400   27.6362 C   0  0  0  0  0  0  0  0  0  0  0  0
    5.4553   -8.5933   27.9644 C   0  0  0  0  0  0  0  0  0  0  0  0
   -2.3870  -12.8440   19.2512 C   0  0  0  0  0  0  0  0  0  0  0  0
    0.5331   -7.6964   16.2751 C   0  0  0  0  0  0  0  0  0  0  0  0
   -0.6740  -10.8737   18.0482 C   0  0  0  0  0  0  0  0  0  0  0  0
    5.6751  -10.5870   29.7637 O   0  0  0  0  0  0  0  0  0  0  0  0
    1.7612   -5.6483   26.7172 C   0  0  0  0  0  0  0  0  0  0  0  0
    0.2221   -9.8326   17.4055 C   0  0  0  0  0  0  0  0  0  0  0  0
    4.3850   -9.0730   28.6745 C   0  0  0  0  0  0  0  0  0  0  0  0
  1  7  4  0
  1 22  4  0
  2 17  4  0
  2 20  4  0
  2 28  4  0
  3  6  1  0
  3 19  1  0
  4 19  1  0
  4 26  1  0
  5 17  4  0
  5 18  4  0
  6 20  1  0
  6 26  1  0
  7 24  4  0
  8 15  4  0
  8 24  4  0
  9 14  4  0
  9 21  4  0
 10 12  4  0
 10 27  4  0
 11 12  4  0
 11 23  4  0
 13 23  4  0
 13 27  4  0
 14 20  4  0
 15 22  4  0
 16 18  4  0
 16 25  2  0
 16 28  4  0
 21 28  4  0
 24 27  1  0
M  END
$$$$

 Created by Python create_sdf_string function

 28 31  0  0  0  0  0  0  0  0999 V2000
   -1.0054  -13.0622   19.1198 C   0  0  0  0  0  0  0  0  0  0  0  0
    3.1478   -8.5360   28.5161 C   0  0  0  0  0  0  0  0  0  0  0  0
    0.5798   -7.1906   27.9330 C   0  0  0  0  0  0  0  0  0  0  0  0
    0.3978   -5.1561   26.6955 C   0  0  0  0  0  0  0  0  0  0  0  0
    2.3063  -10.0533   30.0125 C   0  0  0  0  0  0  0  0  0  0  0  0
    1.8591   -6.8254   27.4685 N   0  0  0  0  0  0  0  0  0  0  0  0
   -0.2167  -12.1055   18.5568 C   0  0  0  0  0  0  0  0  0  0  0  0
   -2.0661  -10.6994   18.1916 C   0  0  0  0  0  0  0  0  0  0  0  0
    5.2703   -7.5691   27.1123 C   0  0  0  0  0  0  0  0  0  0  0  0
    1.6204   -9.9887   17.2935 C   0  0  0  0  0  0  0  0  0  0  0  0
    1.8931   -7.9265   16.2047 C   0  0  0  0  0  0  0  0  0  0  0  0
    2.4396   -9.0801   16.7132 C   0  0  0  0  0  0  0  0  0  0  0  0
   -0.2575   -8.6234   16.8582 C   0  0  0  0  0  0  0  0  0  0  0  0
    4.0614   -7.0367   27.0106 N   0  0  0  0  0  0  0  0  0  0  0  0
   -2.9133  -11.6279   18.7578 C   0  0  0  0  0  0  0  0  0  0  0  0
    4.5688  -10.1291   29.5758 C   0  0  0  0  0  0  0  0  0  0  0  0
    2.1008   -9.0410   29.1852 N   0  0  0  0  0  0  0  0  0  0  0  0
    3.4829  -10.5697   30.2091 N   0  0  0  0  0  0  0  0  0  0  0  0
   -0.3363   -6.1172   27.5628 C   0  0  0  0  0  0  0  0  0  0  0  0
    3.0331   -7.4400   27.6362 C   0  0  0  0  0  0  0  0  0  0  0  0
    5.4553   -8.5933   27.9644 C   0  0  0  0  0  0  0  0  0  0  0  0
   -2.3870  -12.8440   19.2512 C   0  0  0  0  0  0  0  0  0  0  0  0
    0.5331   -7.6964   16.2751 C   0  0  0  0  0  0  0  0  0  0  0  0
   -0.6740  -10.8737   18.0482 C   0  0  0  0  0  0  0  0  0  0  0  0
    5.6751  -10.5870   29.7637 O   0  0  0  0  0  0  0  0  0  0  0  0
    1.7612   -5.6483   26.7172 C   0  0  0  0  0  0  0  0  0  0  0  0
    0.2221   -9.8326   17.4055 C   0  0  0  0  0  0  0  0  0  0  0  0
    4.3850   -9.0730   28.6745 C   0  0  0  0  0  0  0  0  0  0  0  0
  1  7  4  0
  1 22  4  0
  2 17  4  0
  2 20  4  0
  2 28  4  0
  3  6  1  0
  3 19  1  0
  4 19  1  0
  4 26  1  0
  5 17  4  0
  5 18  4  0
  6 20  1  0
  6 26  1  0
  7 24  4  0
  8 15  4  0
  8 24  4  0
  9 14  4  0
  9 21  4  0
 10 12  4  0
 10 27  4  0
 11 12  4  0
 11 23  4  0
 13 23  4  0
 13 27  4  0
 14 20  4  0
 15 22  4  0
 16 18  4  0
 16 25  2  0
 16 28  4  0
 21 28  4  0
 24 27  1  0
M  END
$$$$

 Created by Python create_sdf_string function

 28 31  0  0  0  0  0  0  0  0999 V2000
   -1.0054  -13.0622   19.1198 C   0  0  0  0  0  0  0  0  0  0  0  0
    3.1478   -8.5360   28.5161 C   0  0  0  0  0  0  0  0  0  0  0  0
    0.5798   -7.1906   27.9330 C   0  0  0  0  0  0  0  0  0  0  0  0
    0.3978   -5.1561   26.6955 C   0  0  0  0  0  0  0  0  0  0  0  0
    2.3063  -10.0533   30.0125 C   0  0  0  0  0  0  0  0  0  0  0  0
    1.8591   -6.8254   27.4685 N   0  0  0  0  0  0  0  0  0  0  0  0
   -0.2167  -12.1055   18.5568 C   0  0  0  0  0  0  0  0  0  0  0  0
   -2.0661  -10.6994   18.1916 C   0  0  0  0  0  0  0  0  0  0  0  0
    5.2703   -7.5691   27.1123 C   0  0  0  0  0  0  0  0  0  0  0  0
    1.6204   -9.9887   17.2935 C   0  0  0  0  0  0  0  0  0  0  0  0
    1.8931   -7.9265   16.2047 C   0  0  0  0  0  0  0  0  0  0  0  0
    2.4396   -9.0801   16.7132 C   0  0  0  0  0  0  0  0  0  0  0  0
   -0.2575   -8.6234   16.8582 C   0  0  0  0  0  0  0  0  0  0  0  0
    4.0614   -7.0367   27.0106 N   0  0  0  0  0  0  0  0  0  0  0  0
   -2.9133  -11.6279   18.7578 C   0  0  0  0  0  0  0  0  0  0  0  0
    4.5688  -10.1291   29.5758 C   0  0  0  0  0  0  0  0  0  0  0  0
    2.1008   -9.0410   29.1852 N   0  0  0  0  0  0  0  0  0  0  0  0
    3.4829  -10.5697   30.2091 N   0  0  0  0  0  0  0  0  0  0  0  0
   -0.3363   -6.1172   27.5628 C   0  0  0  0  0  0  0  0  0  0  0  0
    3.0331   -7.4400   27.6362 C   0  0  0  0  0  0  0  0  0  0  0  0
    5.4553   -8.5933   27.9644 C   0  0  0  0  0  0  0  0  0  0  0  0
   -2.3870  -12.8440   19.2512 C   0  0  0  0  0  0  0  0  0  0  0  0
    0.5331   -7.6964   16.2751 C   0  0  0  0  0  0  0  0  0  0  0  0
   -0.6740  -10.8737   18.0482 C   0  0  0  0  0  0  0  0  0  0  0  0
    5.6751  -10.5870   29.7637 O   0  0  0  0  0  0  0  0  0  0  0  0
    1.7612   -5.6483   26.7172 C   0  0  0  0  0  0  0  0  0  0  0  0
    0.2221   -9.8326   17.4055 C   0  0  0  0  0  0  0  0  0  0  0  0
    4.3850   -9.0730   28.6745 C   0  0  0  0  0  0  0  0  0  0  0  0
  1  7  4  0
  1 22  4  0
  2 17  4  0
  2 20  4  0
  2 28  4  0
  3  6  1  0
  3 19  1  0
  4 19  1  0
  4 26  1  0
  5 17  4  0
  5 18  4  0
  6 20  1  0
  6 26  1  0
  7 24  4  0
  8 15  4  0
  8 24  4  0
  9 14  4  0
  9 21  4  0
 10 12  4  0
 10 27  4  0
 11 12  4  0
 11 23  4  0
 13 23  4  0
 13 27  4  0
 14 20  4  0
 15 22  4  0
 16 18  4  0
 16 25  2  0
 16 28  4  0
 21 28  4  0
 24 27  1  0
M  END
$$$$

 Created by Python create_sdf_string function

 28 31  0  0  0  0  0  0  0  0999 V2000
   -1.0054  -13.0622   19.1198 C   0  0  0  0  0  0  0  0  0  0  0  0
    3.1478   -8.5360   28.5161 C   0  0  0  0  0  0  0  0  0  0  0  0
    0.5798   -7.1906   27.9330 C   0  0  0  0  0  0  0  0  0  0  0  0
    0.3978   -5.1561   26.6955 C   0  0  0  0  0  0  0  0  0  0  0  0
    2.3063  -10.0533   30.0125 C   0  0  0  0  0  0  0  0  0  0  0  0
    1.8591   -6.8254   27.4685 N   0  0  0  0  0  0  0  0  0  0  0  0
   -0.2167  -12.1055   18.5568 C   0  0  0  0  0  0  0  0  0  0  0  0
   -2.0661  -10.6994   18.1916 C   0  0  0  0  0  0  0  0  0  0  0  0
    5.2703   -7.5691   27.1123 C   0  0  0  0  0  0  0  0  0  0  0  0
    1.6204   -9.9887   17.2935 C   0  0  0  0  0  0  0  0  0  0  0  0
    1.8931   -7.9265   16.2047 C   0  0  0  0  0  0  0  0  0  0  0  0
    2.4396   -9.0801   16.7132 C   0  0  0  0  0  0  0  0  0  0  0  0
   -0.2575   -8.6234   16.8582 C   0  0  0  0  0  0  0  0  0  0  0  0
    4.0614   -7.0367   27.0106 N   0  0  0  0  0  0  0  0  0  0  0  0
   -2.9133  -11.6279   18.7578 C   0  0  0  0  0  0  0  0  0  0  0  0
    4.5688  -10.1291   29.5758 C   0  0  0  0  0  0  0  0  0  0  0  0
    2.1008   -9.0410   29.1852 N   0  0  0  0  0  0  0  0  0  0  0  0
    3.4829  -10.5697   30.2091 N   0  0  0  0  0  0  0  0  0  0  0  0
   -0.3363   -6.1172   27.5628 C   0  0  0  0  0  0  0  0  0  0  0  0
    3.0331   -7.4400   27.6362 C   0  0  0  0  0  0  0  0  0  0  0  0
    5.4553   -8.5933   27.9644 C   0  0  0  0  0  0  0  0  0  0  0  0
   -2.3870  -12.8440   19.2512 C   0  0  0  0  0  0  0  0  0  0  0  0
    0.5331   -7.6964   16.2751 C   0  0  0  0  0  0  0  0  0  0  0  0
   -0.6740  -10.8737   18.0482 C   0  0  0  0  0  0  0  0  0  0  0  0
    5.6751  -10.5870   29.7637 O   0  0  0  0  0  0  0  0  0  0  0  0
    1.7612   -5.6483   26.7172 C   0  0  0  0  0  0  0  0  0  0  0  0
    0.2221   -9.8326   17.4055 C   0  0  0  0  0  0  0  0  0  0  0  0
    4.3850   -9.0730   28.6745 C   0  0  0  0  0  0  0  0  0  0  0  0
  1  7  4  0
  1 22  4  0
  2 17  4  0
  2 20  4  0
  2 28  4  0
  3  6  1  0
  3 19  1  0
  4 19  1  0
  4 26  1  0
  5 17  4  0
  5 18  4  0
  6 20  1  0
  6 26  1  0
  7 24  4  0
  8 15  4  0
  8 24  4  0
  9 14  4  0
  9 21  4  0
 10 12  4  0
 10 27  4  0
 11 12  4  0
 11 23  4  0
 13 23  4  0
 13 27  4  0
 14 20  4  0
 15 22  4  0
 16 18  4  0
 16 25  2  0
 16 28  4  0
 21 28  4  0
 24 27  1  0
M  END
$$$$

 Created by Python create_sdf_string function

 28 31  0  0  0  0  0  0  0  0999 V2000
   -1.0054  -13.0622   19.1198 C   0  0  0  0  0  0  0  0  0  0  0  0
    3.1478   -8.5360   28.5161 C   0  0  0  0  0  0  0  0  0  0  0  0
    0.5798   -7.1906   27.9330 C   0  0  0  0  0  0  0  0  0  0  0  0
    0.3978   -5.1561   26.6955 C   0  0  0  0  0  0  0  0  0  0  0  0
    2.3063  -10.0533   30.0125 C   0  0  0  0  0  0  0  0  0  0  0  0
    1.8591   -6.8254   27.4685 N   0  0  0  0  0  0  0  0  0  0  0  0
   -0.2167  -12.1055   18.5568 C   0  0  0  0  0  0  0  0  0  0  0  0
   -2.0661  -10.6994   18.1916 C   0  0  0  0  0  0  0  0  0  0  0  0
    5.2703   -7.5691   27.1123 C   0  0  0  0  0  0  0  0  0  0  0  0
    1.6204   -9.9887   17.2935 C   0  0  0  0  0  0  0  0  0  0  0  0
    1.8931   -7.9265   16.2047 C   0  0  0  0  0  0  0  0  0  0  0  0
    2.4396   -9.0801   16.7132 C   0  0  0  0  0  0  0  0  0  0  0  0
   -0.2575   -8.6234   16.8582 C   0  0  0  0  0  0  0  0  0  0  0  0
    4.0614   -7.0367   27.0106 N   0  0  0  0  0  0  0  0  0  0  0  0
   -2.9133  -11.6279   18.7578 C   0  0  0  0  0  0  0  0  0  0  0  0
    4.5688  -10.1291   29.5758 C   0  0  0  0  0  0  0  0  0  0  0  0
    2.1008   -9.0410   29.1852 N   0  0  0  0  0  0  0  0  0  0  0  0
    3.4829  -10.5697   30.2091 N   0  0  0  0  0  0  0  0  0  0  0  0
   -0.3363   -6.1172   27.5628 C   0  0  0  0  0  0  0  0  0  0  0  0
    3.0331   -7.4400   27.6362 C   0  0  0  0  0  0  0  0  0  0  0  0
    5.4553   -8.5933   27.9644 C   0  0  0  0  0  0  0  0  0  0  0  0
   -2.3870  -12.8440   19.2512 C   0  0  0  0  0  0  0  0  0  0  0  0
    0.5331   -7.6964   16.2751 C   0  0  0  0  0  0  0  0  0  0  0  0
   -0.6740  -10.8737   18.0482 C   0  0  0  0  0  0  0  0  0  0  0  0
    5.6751  -10.5870   29.7637 O   0  0  0  0  0  0  0  0  0  0  0  0
    1.7612   -5.6483   26.7172 C   0  0  0  0  0  0  0  0  0  0  0  0
    0.2221   -9.8326   17.4055 C   0  0  0  0  0  0  0  0  0  0  0  0
    4.3850   -9.0730   28.6745 C   0  0  0  0  0  0  0  0  0  0  0  0
  1  7  4  0
  1 22  4  0
  2 17  4  0
  2 20  4  0
  2 28  4  0
  3  6  1  0
  3 19  1  0
  4 19  1  0
  4 26  1  0
  5 17  4  0
  5 18  4  0
  6 20  1  0
  6 26  1  0
  7 24  4  0
  8 15  4  0
  8 24  4  0
  9 14  4  0
  9 21  4  0
 10 12  4  0
 10 27  4  0
 11 12  4  0
 11 23  4  0
 13 23  4  0
 13 27  4  0
 14 20  4  0
 15 22  4  0
 16 18  4  0
 16 25  2  0
 16 28  4  0
 21 28  4  0
 24 27  1  0
M  END
$$$$

 Created by Python create_sdf_string function

 28 31  0  0  0  0  0  0  0  0999 V2000
   -1.0054  -13.0622   19.1198 C   0  0  0  0  0  0  0  0  0  0  0  0
    3.1478   -8.5360   28.5161 C   0  0  0  0  0  0  0  0  0  0  0  0
    0.5798   -7.1906   27.9330 C   0  0  0  0  0  0  0  0  0  0  0  0
    0.3978   -5.1561   26.6955 C   0  0  0  0  0  0  0  0  0  0  0  0
    2.3063  -10.0533   30.0125 C   0  0  0  0  0  0  0  0  0  0  0  0
    1.8591   -6.8254   27.4685 N   0  0  0  0  0  0  0  0  0  0  0  0
   -0.2167  -12.1055   18.5568 C   0  0  0  0  0  0  0  0  0  0  0  0
   -2.0661  -10.6994   18.1916 C   0  0  0  0  0  0  0  0  0  0  0  0
    5.2703   -7.5691   27.1123 C   0  0  0  0  0  0  0  0  0  0  0  0
    1.6204   -9.9887   17.2935 C   0  0  0  0  0  0  0  0  0  0  0  0
    1.8931   -7.9265   16.2047 C   0  0  0  0  0  0  0  0  0  0  0  0
    2.4396   -9.0801   16.7132 C   0  0  0  0  0  0  0  0  0  0  0  0
   -0.2575   -8.6234   16.8582 C   0  0  0  0  0  0  0  0  0  0  0  0
    4.0614   -7.0367   27.0106 N   0  0  0  0  0  0  0  0  0  0  0  0
   -2.9133  -11.6279   18.7578 C   0  0  0  0  0  0  0  0  0  0  0  0
    4.5688  -10.1291   29.5758 C   0  0  0  0  0  0  0  0  0  0  0  0
    2.1008   -9.0410   29.1852 N   0  0  0  0  0  0  0  0  0  0  0  0
    3.4829  -10.5697   30.2091 N   0  0  0  0  0  0  0  0  0  0  0  0
   -0.3363   -6.1172   27.5628 C   0  0  0  0  0  0  0  0  0  0  0  0
    3.0331   -7.4400   27.6362 C   0  0  0  0  0  0  0  0  0  0  0  0
    5.4553   -8.5933   27.9644 C   0  0  0  0  0  0  0  0  0  0  0  0
   -2.3870  -12.8440   19.2512 C   0  0  0  0  0  0  0  0  0  0  0  0
    0.5331   -7.6964   16.2751 C   0  0  0  0  0  0  0  0  0  0  0  0
   -0.6740  -10.8737   18.0482 C   0  0  0  0  0  0  0  0  0  0  0  0
    5.6751  -10.5870   29.7637 O   0  0  0  0  0  0  0  0  0  0  0  0
    1.7612   -5.6483   26.7172 C   0  0  0  0  0  0  0  0  0  0  0  0
    0.2221   -9.8326   17.4055 C   0  0  0  0  0  0  0  0  0  0  0  0
    4.3850   -9.0730   28.6745 C   0  0  0  0  0  0  0  0  0  0  0  0
  1  7  4  0
  1 22  4  0
  2 17  4  0
  2 20  4  0
  2 28  4  0
  3  6  1  0
  3 19  1  0
  4 19  1  0
  4 26  1  0
  5 17  4  0
  5 18  4  0
  6 20  1  0
  6 26  1  0
  7 24  4  0
  8 15  4  0
  8 24  4  0
  9 14  4  0
  9 21  4  0
 10 12  4  0
 10 27  4  0
 11 12  4  0
 11 23  4  0
 13 23  4  0
 13 27  4  0
 14 20  4  0
 15 22  4  0
 16 18  4  0
 16 25  2  0
 16 28  4  0
 21 28  4  0
 24 27  1  0
M  END
$$$$

 Created by Python create_sdf_string function

 28 31  0  0  0  0  0  0  0  0999 V2000
   -1.0054  -13.0622   19.1198 C   0  0  0  0  0  0  0  0  0  0  0  0
    3.1478   -8.5360   28.5161 C   0  0  0  0  0  0  0  0  0  0  0  0
    0.5798   -7.1906   27.9330 C   0  0  0  0  0  0  0  0  0  0  0  0
    0.3978   -5.1561   26.6955 C   0  0  0  0  0  0  0  0  0  0  0  0
    2.3063  -10.0533   30.0125 C   0  0  0  0  0  0  0  0  0  0  0  0
    1.8591   -6.8254   27.4685 N   0  0  0  0  0  0  0  0  0  0  0  0
   -0.2167  -12.1055   18.5568 C   0  0  0  0  0  0  0  0  0  0  0  0
   -2.0661  -10.6994   18.1916 C   0  0  0  0  0  0  0  0  0  0  0  0
    5.2703   -7.5691   27.1123 C   0  0  0  0  0  0  0  0  0  0  0  0
    1.6204   -9.9887   17.2935 C   0  0  0  0  0  0  0  0  0  0  0  0
    1.8931   -7.9265   16.2047 C   0  0  0  0  0  0  0  0  0  0  0  0
    2.4396   -9.0801   16.7132 C   0  0  0  0  0  0  0  0  0  0  0  0
   -0.2575   -8.6234   16.8582 C   0  0  0  0  0  0  0  0  0  0  0  0
    4.0614   -7.0367   27.0106 N   0  0  0  0  0  0  0  0  0  0  0  0
   -2.9133  -11.6279   18.7578 C   0  0  0  0  0  0  0  0  0  0  0  0
    4.5688  -10.1291   29.5758 C   0  0  0  0  0  0  0  0  0  0  0  0
    2.1008   -9.0410   29.1852 N   0  0  0  0  0  0  0  0  0  0  0  0
    3.4829  -10.5697   30.2091 N   0  0  0  0  0  0  0  0  0  0  0  0
   -0.3363   -6.1172   27.5628 C   0  0  0  0  0  0  0  0  0  0  0  0
    3.0331   -7.4400   27.6362 C   0  0  0  0  0  0  0  0  0  0  0  0
    5.4553   -8.5933   27.9644 C   0  0  0  0  0  0  0  0  0  0  0  0
   -2.3870  -12.8440   19.2512 C   0  0  0  0  0  0  0  0  0  0  0  0
    0.5331   -7.6964   16.2751 C   0  0  0  0  0  0  0  0  0  0  0  0
   -0.6740  -10.8737   18.0482 C   0  0  0  0  0  0  0  0  0  0  0  0
    5.6751  -10.5870   29.7637 O   0  0  0  0  0  0  0  0  0  0  0  0
    1.7612   -5.6483   26.7172 C   0  0  0  0  0  0  0  0  0  0  0  0
    0.2221   -9.8326   17.4055 C   0  0  0  0  0  0  0  0  0  0  0  0
    4.3850   -9.0730   28.6745 C   0  0  0  0  0  0  0  0  0  0  0  0
  1  7  4  0
  1 22  4  0
  2 17  4  0
  2 20  4  0
  2 28  4  0
  3  6  1  0
  3 19  1  0
  4 19  1  0
  4 26  1  0
  5 17  4  0
  5 18  4  0
  6 20  1  0
  6 26  1  0
  7 24  4  0
  8 15  4  0
  8 24  4  0
  9 14  4  0
  9 21  4  0
 10 12  4  0
 10 27  4  0
 11 12  4  0
 11 23  4  0
 13 23  4  0
 13 27  4  0
 14 20  4  0
 15 22  4  0
 16 18  4  0
 16 25  2  0
 16 28  4  0
 21 28  4  0
 24 27  1  0
M  END
$$$$

 Created by Python create_sdf_string function

 28 31  0  0  0  0  0  0  0  0999 V2000
   -1.0054  -13.0622   19.1198 C   0  0  0  0  0  0  0  0  0  0  0  0
    3.1478   -8.5360   28.5161 C   0  0  0  0  0  0  0  0  0  0  0  0
    0.5798   -7.1906   27.9330 C   0  0  0  0  0  0  0  0  0  0  0  0
    0.3978   -5.1561   26.6955 C   0  0  0  0  0  0  0  0  0  0  0  0
    2.3063  -10.0533   30.0125 C   0  0  0  0  0  0  0  0  0  0  0  0
    1.8591   -6.8254   27.4685 N   0  0  0  0  0  0  0  0  0  0  0  0
   -0.2167  -12.1055   18.5568 C   0  0  0  0  0  0  0  0  0  0  0  0
   -2.0661  -10.6994   18.1916 C   0  0  0  0  0  0  0  0  0  0  0  0
    5.2703   -7.5691   27.1123 C   0  0  0  0  0  0  0  0  0  0  0  0
    1.6204   -9.9887   17.2935 C   0  0  0  0  0  0  0  0  0  0  0  0
    1.8931   -7.9265   16.2047 C   0  0  0  0  0  0  0  0  0  0  0  0
    2.4396   -9.0801   16.7132 C   0  0  0  0  0  0  0  0  0  0  0  0
   -0.2575   -8.6234   16.8582 C   0  0  0  0  0  0  0  0  0  0  0  0
    4.0614   -7.0367   27.0106 N   0  0  0  0  0  0  0  0  0  0  0  0
   -2.9133  -11.6279   18.7578 C   0  0  0  0  0  0  0  0  0  0  0  0
    4.5688  -10.1291   29.5758 C   0  0  0  0  0  0  0  0  0  0  0  0
    2.1008   -9.0410   29.1852 N   0  0  0  0  0  0  0  0  0  0  0  0
    3.4829  -10.5697   30.2091 N   0  0  0  0  0  0  0  0  0  0  0  0
   -0.3363   -6.1172   27.5628 C   0  0  0  0  0  0  0  0  0  0  0  0
    3.0331   -7.4400   27.6362 C   0  0  0  0  0  0  0  0  0  0  0  0
    5.4553   -8.5933   27.9644 C   0  0  0  0  0  0  0  0  0  0  0  0
   -2.3870  -12.8440   19.2512 C   0  0  0  0  0  0  0  0  0  0  0  0
    0.5331   -7.6964   16.2751 C   0  0  0  0  0  0  0  0  0  0  0  0
   -0.6740  -10.8737   18.0482 C   0  0  0  0  0  0  0  0  0  0  0  0
    5.6751  -10.5870   29.7637 O   0  0  0  0  0  0  0  0  0  0  0  0
    1.7612   -5.6483   26.7172 C   0  0  0  0  0  0  0  0  0  0  0  0
    0.2221   -9.8326   17.4055 C   0  0  0  0  0  0  0  0  0  0  0  0
    4.3850   -9.0730   28.6745 C   0  0  0  0  0  0  0  0  0  0  0  0
  1  7  4  0
  1 22  4  0
  2 17  4  0
  2 20  4  0
  2 28  4  0
  3  6  1  0
  3 19  1  0
  4 19  1  0
  4 26  1  0
  5 17  4  0
  5 18  4  0
  6 20  1  0
  6 26  1  0
  7 24  4  0
  8 15  4  0
  8 24  4  0
  9 14  4  0
  9 21  4  0
 10 12  4  0
 10 27  4  0
 11 12  4  0
 11 23  4  0
 13 23  4  0
 13 27  4  0
 14 20  4  0
 15 22  4  0
 16 18  4  0
 16 25  2  0
 16 28  4  0
 21 28  4  0
 24 27  1  0
M  END
$$$$

 Created by Python create_sdf_string function

 28 31  0  0  0  0  0  0  0  0999 V2000
   -1.0054  -13.0622   19.1198 C   0  0  0  0  0  0  0  0  0  0  0  0
    3.1478   -8.5360   28.5161 C   0  0  0  0  0  0  0  0  0  0  0  0
    0.5798   -7.1906   27.9330 C   0  0  0  0  0  0  0  0  0  0  0  0
    0.3978   -5.1561   26.6955 C   0  0  0  0  0  0  0  0  0  0  0  0
    2.3063  -10.0533   30.0125 C   0  0  0  0  0  0  0  0  0  0  0  0
    1.8591   -6.8254   27.4685 N   0  0  0  0  0  0  0  0  0  0  0  0
   -0.2167  -12.1055   18.5568 C   0  0  0  0  0  0  0  0  0  0  0  0
   -2.0661  -10.6994   18.1916 C   0  0  0  0  0  0  0  0  0  0  0  0
    5.2703   -7.5691   27.1123 C   0  0  0  0  0  0  0  0  0  0  0  0
    1.6204   -9.9887   17.2935 C   0  0  0  0  0  0  0  0  0  0  0  0
    1.8931   -7.9265   16.2047 C   0  0  0  0  0  0  0  0  0  0  0  0
    2.4396   -9.0801   16.7132 C   0  0  0  0  0  0  0  0  0  0  0  0
   -0.2575   -8.6234   16.8582 C   0  0  0  0  0  0  0  0  0  0  0  0
    4.0614   -7.0367   27.0106 N   0  0  0  0  0  0  0  0  0  0  0  0
   -2.9133  -11.6279   18.7578 C   0  0  0  0  0  0  0  0  0  0  0  0
    4.5688  -10.1291   29.5758 C   0  0  0  0  0  0  0  0  0  0  0  0
    2.1008   -9.0410   29.1852 N   0  0  0  0  0  0  0  0  0  0  0  0
    3.4829  -10.5697   30.2091 N   0  0  0  0  0  0  0  0  0  0  0  0
   -0.3363   -6.1172   27.5628 C   0  0  0  0  0  0  0  0  0  0  0  0
    3.0331   -7.4400   27.6362 C   0  0  0  0  0  0  0  0  0  0  0  0
    5.4553   -8.5933   27.9644 C   0  0  0  0  0  0  0  0  0  0  0  0
   -2.3870  -12.8440   19.2512 C   0  0  0  0  0  0  0  0  0  0  0  0
    0.5331   -7.6964   16.2751 C   0  0  0  0  0  0  0  0  0  0  0  0
   -0.6740  -10.8737   18.0482 C   0  0  0  0  0  0  0  0  0  0  0  0
    5.6751  -10.5870   29.7637 O   0  0  0  0  0  0  0  0  0  0  0  0
    1.7612   -5.6483   26.7172 C   0  0  0  0  0  0  0  0  0  0  0  0
    0.2221   -9.8326   17.4055 C   0  0  0  0  0  0  0  0  0  0  0  0
    4.3850   -9.0730   28.6745 C   0  0  0  0  0  0  0  0  0  0  0  0
  1  7  4  0
  1 22  4  0
  2 17  4  0
  2 20  4  0
  2 28  4  0
  3  6  1  0
  3 19  1  0
  4 19  1  0
  4 26  1  0
  5 17  4  0
  5 18  4  0
  6 20  1  0
  6 26  1  0
  7 24  4  0
  8 15  4  0
  8 24  4  0
  9 14  4  0
  9 21  4  0
 10 12  4  0
 10 27  4  0
 11 12  4  0
 11 23  4  0
 13 23  4  0
 13 27  4  0
 14 20  4  0
 15 22  4  0
 16 18  4  0
 16 25  2  0
 16 28  4  0
 21 28  4  0
 24 27  1  0
M  END
$$$$

 Created by Python create_sdf_string function

 28 31  0  0  0  0  0  0  0  0999 V2000
   -1.0054  -13.0622   19.1198 C   0  0  0  0  0  0  0  0  0  0  0  0
    3.1478   -8.5360   28.5161 C   0  0  0  0  0  0  0  0  0  0  0  0
    0.5798   -7.1906   27.9330 C   0  0  0  0  0  0  0  0  0  0  0  0
    0.3978   -5.1561   26.6955 C   0  0  0  0  0  0  0  0  0  0  0  0
    2.3063  -10.0533   30.0125 C   0  0  0  0  0  0  0  0  0  0  0  0
    1.8591   -6.8254   27.4685 N   0  0  0  0  0  0  0  0  0  0  0  0
   -0.2167  -12.1055   18.5568 C   0  0  0  0  0  0  0  0  0  0  0  0
   -2.0661  -10.6994   18.1916 C   0  0  0  0  0  0  0  0  0  0  0  0
    5.2703   -7.5691   27.1123 C   0  0  0  0  0  0  0  0  0  0  0  0
    1.6204   -9.9887   17.2935 C   0  0  0  0  0  0  0  0  0  0  0  0
    1.8931   -7.9265   16.2047 C   0  0  0  0  0  0  0  0  0  0  0  0
    2.4396   -9.0801   16.7132 C   0  0  0  0  0  0  0  0  0  0  0  0
   -0.2575   -8.6234   16.8582 C   0  0  0  0  0  0  0  0  0  0  0  0
    4.0614   -7.0367   27.0106 N   0  0  0  0  0  0  0  0  0  0  0  0
   -2.9133  -11.6279   18.7578 C   0  0  0  0  0  0  0  0  0  0  0  0
    4.5688  -10.1291   29.5758 C   0  0  0  0  0  0  0  0  0  0  0  0
    2.1008   -9.0410   29.1852 N   0  0  0  0  0  0  0  0  0  0  0  0
    3.4829  -10.5697   30.2091 N   0  0  0  0  0  0  0  0  0  0  0  0
   -0.3363   -6.1172   27.5628 C   0  0  0  0  0  0  0  0  0  0  0  0
    3.0331   -7.4400   27.6362 C   0  0  0  0  0  0  0  0  0  0  0  0
    5.4553   -8.5933   27.9644 C   0  0  0  0  0  0  0  0  0  0  0  0
   -2.3870  -12.8440   19.2512 C   0  0  0  0  0  0  0  0  0  0  0  0
    0.5331   -7.6964   16.2751 C   0  0  0  0  0  0  0  0  0  0  0  0
   -0.6740  -10.8737   18.0482 C   0  0  0  0  0  0  0  0  0  0  0  0
    5.6751  -10.5870   29.7637 O   0  0  0  0  0  0  0  0  0  0  0  0
    1.7612   -5.6483   26.7172 C   0  0  0  0  0  0  0  0  0  0  0  0
    0.2221   -9.8326   17.4055 C   0  0  0  0  0  0  0  0  0  0  0  0
    4.3850   -9.0730   28.6745 C   0  0  0  0  0  0  0  0  0  0  0  0
  1  7  4  0
  1 22  4  0
  2 17  4  0
  2 20  4  0
  2 28  4  0
  3  6  1  0
  3 19  1  0
  4 19  1  0
  4 26  1  0
  5 17  4  0
  5 18  4  0
  6 20  1  0
  6 26  1  0
  7 24  4  0
  8 15  4  0
  8 24  4  0
  9 14  4  0
  9 21  4  0
 10 12  4  0
 10 27  4  0
 11 12  4  0
 11 23  4  0
 13 23  4  0
 13 27  4  0
 14 20  4  0
 15 22  4  0
 16 18  4  0
 16 25  2  0
 16 28  4  0
 21 28  4  0
 24 27  1  0
M  END
$$$$

 Created by Python create_sdf_string function

 28 31  0  0  0  0  0  0  0  0999 V2000
   -1.0054  -13.0622   19.1198 C   0  0  0  0  0  0  0  0  0  0  0  0
    3.1478   -8.5360   28.5161 C   0  0  0  0  0  0  0  0  0  0  0  0
    0.5798   -7.1906   27.9330 C   0  0  0  0  0  0  0  0  0  0  0  0
    0.3978   -5.1561   26.6955 C   0  0  0  0  0  0  0  0  0  0  0  0
    2.3063  -10.0533   30.0125 C   0  0  0  0  0  0  0  0  0  0  0  0
    1.8591   -6.8254   27.4685 N   0  0  0  0  0  0  0  0  0  0  0  0
   -0.2167  -12.1055   18.5568 C   0  0  0  0  0  0  0  0  0  0  0  0
   -2.0661  -10.6994   18.1916 C   0  0  0  0  0  0  0  0  0  0  0  0
    5.2703   -7.5691   27.1123 C   0  0  0  0  0  0  0  0  0  0  0  0
    1.6204   -9.9887   17.2935 C   0  0  0  0  0  0  0  0  0  0  0  0
    1.8931   -7.9265   16.2047 C   0  0  0  0  0  0  0  0  0  0  0  0
    2.4396   -9.0801   16.7132 C   0  0  0  0  0  0  0  0  0  0  0  0
   -0.2575   -8.6234   16.8582 C   0  0  0  0  0  0  0  0  0  0  0  0
    4.0614   -7.0367   27.0106 N   0  0  0  0  0  0  0  0  0  0  0  0
   -2.9133  -11.6279   18.7578 C   0  0  0  0  0  0  0  0  0  0  0  0
    4.5688  -10.1291   29.5758 C   0  0  0  0  0  0  0  0  0  0  0  0
    2.1008   -9.0410   29.1852 N   0  0  0  0  0  0  0  0  0  0  0  0
    3.4829  -10.5697   30.2091 N   0  0  0  0  0  0  0  0  0  0  0  0
   -0.3363   -6.1172   27.5628 C   0  0  0  0  0  0  0  0  0  0  0  0
    3.0331   -7.4400   27.6362 C   0  0  0  0  0  0  0  0  0  0  0  0
    5.4553   -8.5933   27.9644 C   0  0  0  0  0  0  0  0  0  0  0  0
   -2.3870  -12.8440   19.2512 C   0  0  0  0  0  0  0  0  0  0  0  0
    0.5331   -7.6964   16.2751 C   0  0  0  0  0  0  0  0  0  0  0  0
   -0.6740  -10.8737   18.0482 C   0  0  0  0  0  0  0  0  0  0  0  0
    5.6751  -10.5870   29.7637 O   0  0  0  0  0  0  0  0  0  0  0  0
    1.7612   -5.6483   26.7172 C   0  0  0  0  0  0  0  0  0  0  0  0
    0.2221   -9.8326   17.4055 C   0  0  0  0  0  0  0  0  0  0  0  0
    4.3850   -9.0730   28.6745 C   0  0  0  0  0  0  0  0  0  0  0  0
  1  7  4  0
  1 22  4  0
  2 17  4  0
  2 20  4  0
  2 28  4  0
  3  6  1  0
  3 19  1  0
  4 19  1  0
  4 26  1  0
  5 17  4  0
  5 18  4  0
  6 20  1  0
  6 26  1  0
  7 24  4  0
  8 15  4  0
  8 24  4  0
  9 14  4  0
  9 21  4  0
 10 12  4  0
 10 27  4  0
 11 12  4  0
 11 23  4  0
 13 23  4  0
 13 27  4  0
 14 20  4  0
 15 22  4  0
 16 18  4  0
 16 25  2  0
 16 28  4  0
 21 28  4  0
 24 27  1  0
M  END
$$$$

 Created by Python create_sdf_string function

 28 31  0  0  0  0  0  0  0  0999 V2000
   -1.0054  -13.0622   19.1198 C   0  0  0  0  0  0  0  0  0  0  0  0
    3.1478   -8.5360   28.5161 C   0  0  0  0  0  0  0  0  0  0  0  0
    0.5798   -7.1906   27.9330 C   0  0  0  0  0  0  0  0  0  0  0  0
    0.3978   -5.1561   26.6955 C   0  0  0  0  0  0  0  0  0  0  0  0
    2.3063  -10.0533   30.0125 C   0  0  0  0  0  0  0  0  0  0  0  0
    1.8591   -6.8254   27.4685 N   0  0  0  0  0  0  0  0  0  0  0  0
   -0.2167  -12.1055   18.5568 C   0  0  0  0  0  0  0  0  0  0  0  0
   -2.0661  -10.6994   18.1916 C   0  0  0  0  0  0  0  0  0  0  0  0
    5.2703   -7.5691   27.1123 C   0  0  0  0  0  0  0  0  0  0  0  0
    1.6204   -9.9887   17.2935 C   0  0  0  0  0  0  0  0  0  0  0  0
    1.8931   -7.9265   16.2047 C   0  0  0  0  0  0  0  0  0  0  0  0
    2.4396   -9.0801   16.7132 C   0  0  0  0  0  0  0  0  0  0  0  0
   -0.2575   -8.6234   16.8582 C   0  0  0  0  0  0  0  0  0  0  0  0
    4.0614   -7.0367   27.0106 N   0  0  0  0  0  0  0  0  0  0  0  0
   -2.9133  -11.6279   18.7578 C   0  0  0  0  0  0  0  0  0  0  0  0
    4.5688  -10.1291   29.5758 C   0  0  0  0  0  0  0  0  0  0  0  0
    2.1008   -9.0410   29.1852 N   0  0  0  0  0  0  0  0  0  0  0  0
    3.4829  -10.5697   30.2091 N   0  0  0  0  0  0  0  0  0  0  0  0
   -0.3363   -6.1172   27.5628 C   0  0  0  0  0  0  0  0  0  0  0  0
    3.0331   -7.4400   27.6362 C   0  0  0  0  0  0  0  0  0  0  0  0
    5.4553   -8.5933   27.9644 C   0  0  0  0  0  0  0  0  0  0  0  0
   -2.3870  -12.8440   19.2512 C   0  0  0  0  0  0  0  0  0  0  0  0
    0.5331   -7.6964   16.2751 C   0  0  0  0  0  0  0  0  0  0  0  0
   -0.6740  -10.8737   18.0482 C   0  0  0  0  0  0  0  0  0  0  0  0
    5.6751  -10.5870   29.7637 O   0  0  0  0  0  0  0  0  0  0  0  0
    1.7612   -5.6483   26.7172 C   0  0  0  0  0  0  0  0  0  0  0  0
    0.2221   -9.8326   17.4055 C   0  0  0  0  0  0  0  0  0  0  0  0
    4.3850   -9.0730   28.6745 C   0  0  0  0  0  0  0  0  0  0  0  0
  1  7  4  0
  1 22  4  0
  2 17  4  0
  2 20  4  0
  2 28  4  0
  3  6  1  0
  3 19  1  0
  4 19  1  0
  4 26  1  0
  5 17  4  0
  5 18  4  0
  6 20  1  0
  6 26  1  0
  7 24  4  0
  8 15  4  0
  8 24  4  0
  9 14  4  0
  9 21  4  0
 10 12  4  0
 10 27  4  0
 11 12  4  0
 11 23  4  0
 13 23  4  0
 13 27  4  0
 14 20  4  0
 15 22  4  0
 16 18  4  0
 16 25  2  0
 16 28  4  0
 21 28  4  0
 24 27  1  0
M  END
$$$$

 Created by Python create_sdf_string function

 28 31  0  0  0  0  0  0  0  0999 V2000
   -1.0054  -13.0622   19.1198 C   0  0  0  0  0  0  0  0  0  0  0  0
    3.1478   -8.5360   28.5161 C   0  0  0  0  0  0  0  0  0  0  0  0
    0.5798   -7.1906   27.9330 C   0  0  0  0  0  0  0  0  0  0  0  0
    0.3978   -5.1561   26.6955 C   0  0  0  0  0  0  0  0  0  0  0  0
    2.3063  -10.0533   30.0125 C   0  0  0  0  0  0  0  0  0  0  0  0
    1.8591   -6.8254   27.4685 N   0  0  0  0  0  0  0  0  0  0  0  0
   -0.2167  -12.1055   18.5568 C   0  0  0  0  0  0  0  0  0  0  0  0
   -2.0661  -10.6994   18.1916 C   0  0  0  0  0  0  0  0  0  0  0  0
    5.2703   -7.5691   27.1123 C   0  0  0  0  0  0  0  0  0  0  0  0
    1.6204   -9.9887   17.2935 C   0  0  0  0  0  0  0  0  0  0  0  0
    1.8931   -7.9265   16.2047 C   0  0  0  0  0  0  0  0  0  0  0  0
    2.4396   -9.0801   16.7132 C   0  0  0  0  0  0  0  0  0  0  0  0
   -0.2575   -8.6234   16.8582 C   0  0  0  0  0  0  0  0  0  0  0  0
    4.0614   -7.0367   27.0106 N   0  0  0  0  0  0  0  0  0  0  0  0
   -2.9133  -11.6279   18.7578 C   0  0  0  0  0  0  0  0  0  0  0  0
    4.5688  -10.1291   29.5758 C   0  0  0  0  0  0  0  0  0  0  0  0
    2.1008   -9.0410   29.1852 N   0  0  0  0  0  0  0  0  0  0  0  0
    3.4829  -10.5697   30.2091 N   0  0  0  0  0  0  0  0  0  0  0  0
   -0.3363   -6.1172   27.5628 C   0  0  0  0  0  0  0  0  0  0  0  0
    3.0331   -7.4400   27.6362 C   0  0  0  0  0  0  0  0  0  0  0  0
    5.4553   -8.5933   27.9644 C   0  0  0  0  0  0  0  0  0  0  0  0
   -2.3870  -12.8440   19.2512 C   0  0  0  0  0  0  0  0  0  0  0  0
    0.5331   -7.6964   16.2751 C   0  0  0  0  0  0  0  0  0  0  0  0
   -0.6740  -10.8737   18.0482 C   0  0  0  0  0  0  0  0  0  0  0  0
    5.6751  -10.5870   29.7637 O   0  0  0  0  0  0  0  0  0  0  0  0
    1.7612   -5.6483   26.7172 C   0  0  0  0  0  0  0  0  0  0  0  0
    0.2221   -9.8326   17.4055 C   0  0  0  0  0  0  0  0  0  0  0  0
    4.3850   -9.0730   28.6745 C   0  0  0  0  0  0  0  0  0  0  0  0
  1  7  4  0
  1 22  4  0
  2 17  4  0
  2 20  4  0
  2 28  4  0
  3  6  1  0
  3 19  1  0
  4 19  1  0
  4 26  1  0
  5 17  4  0
  5 18  4  0
  6 20  1  0
  6 26  1  0
  7 24  4  0
  8 15  4  0
  8 24  4  0
  9 14  4  0
  9 21  4  0
 10 12  4  0
 10 27  4  0
 11 12  4  0
 11 23  4  0
 13 23  4  0
 13 27  4  0
 14 20  4  0
 15 22  4  0
 16 18  4  0
 16 25  2  0
 16 28  4  0
 21 28  4  0
 24 27  1  0
M  END
$$$$

 Created by Python create_sdf_string function

 28 31  0  0  0  0  0  0  0  0999 V2000
   -1.0054  -13.0622   19.1198 C   0  0  0  0  0  0  0  0  0  0  0  0
    3.1478   -8.5360   28.5161 C   0  0  0  0  0  0  0  0  0  0  0  0
    0.5798   -7.1906   27.9330 C   0  0  0  0  0  0  0  0  0  0  0  0
    0.3978   -5.1561   26.6955 C   0  0  0  0  0  0  0  0  0  0  0  0
    2.3063  -10.0533   30.0125 C   0  0  0  0  0  0  0  0  0  0  0  0
    1.8591   -6.8254   27.4685 N   0  0  0  0  0  0  0  0  0  0  0  0
   -0.2167  -12.1055   18.5568 C   0  0  0  0  0  0  0  0  0  0  0  0
   -2.0661  -10.6994   18.1916 C   0  0  0  0  0  0  0  0  0  0  0  0
    5.2703   -7.5691   27.1123 C   0  0  0  0  0  0  0  0  0  0  0  0
    1.6204   -9.9887   17.2935 C   0  0  0  0  0  0  0  0  0  0  0  0
    1.8931   -7.9265   16.2047 C   0  0  0  0  0  0  0  0  0  0  0  0
    2.4396   -9.0801   16.7132 C   0  0  0  0  0  0  0  0  0  0  0  0
   -0.2575   -8.6234   16.8582 C   0  0  0  0  0  0  0  0  0  0  0  0
    4.0614   -7.0367   27.0106 N   0  0  0  0  0  0  0  0  0  0  0  0
   -2.9133  -11.6279   18.7578 C   0  0  0  0  0  0  0  0  0  0  0  0
    4.5688  -10.1291   29.5758 C   0  0  0  0  0  0  0  0  0  0  0  0
    2.1008   -9.0410   29.1852 N   0  0  0  0  0  0  0  0  0  0  0  0
    3.4829  -10.5697   30.2091 N   0  0  0  0  0  0  0  0  0  0  0  0
   -0.3363   -6.1172   27.5628 C   0  0  0  0  0  0  0  0  0  0  0  0
    3.0331   -7.4400   27.6362 C   0  0  0  0  0  0  0  0  0  0  0  0
    5.4553   -8.5933   27.9644 C   0  0  0  0  0  0  0  0  0  0  0  0
   -2.3870  -12.8440   19.2512 C   0  0  0  0  0  0  0  0  0  0  0  0
    0.5331   -7.6964   16.2751 C   0  0  0  0  0  0  0  0  0  0  0  0
   -0.6740  -10.8737   18.0482 C   0  0  0  0  0  0  0  0  0  0  0  0
    5.6751  -10.5870   29.7637 O   0  0  0  0  0  0  0  0  0  0  0  0
    1.7612   -5.6483   26.7172 C   0  0  0  0  0  0  0  0  0  0  0  0
    0.2221   -9.8326   17.4055 C   0  0  0  0  0  0  0  0  0  0  0  0
    4.3850   -9.0730   28.6745 C   0  0  0  0  0  0  0  0  0  0  0  0
  1  7  4  0
  1 22  4  0
  2 17  4  0
  2 20  4  0
  2 28  4  0
  3  6  1  0
  3 19  1  0
  4 19  1  0
  4 26  1  0
  5 17  4  0
  5 18  4  0
  6 20  1  0
  6 26  1  0
  7 24  4  0
  8 15  4  0
  8 24  4  0
  9 14  4  0
  9 21  4  0
 10 12  4  0
 10 27  4  0
 11 12  4  0
 11 23  4  0
 13 23  4  0
 13 27  4  0
 14 20  4  0
 15 22  4  0
 16 18  4  0
 16 25  2  0
 16 28  4  0
 21 28  4  0
 24 27  1  0
M  END
$$$$

 Created by Python create_sdf_string function

 28 31  0  0  0  0  0  0  0  0999 V2000
   -1.0054  -13.0622   19.1198 C   0  0  0  0  0  0  0  0  0  0  0  0
    3.1478   -8.5360   28.5161 C   0  0  0  0  0  0  0  0  0  0  0  0
    0.5798   -7.1906   27.9330 C   0  0  0  0  0  0  0  0  0  0  0  0
    0.3978   -5.1561   26.6955 C   0  0  0  0  0  0  0  0  0  0  0  0
    2.3063  -10.0533   30.0125 C   0  0  0  0  0  0  0  0  0  0  0  0
    1.8591   -6.8254   27.4685 N   0  0  0  0  0  0  0  0  0  0  0  0
   -0.2167  -12.1055   18.5568 C   0  0  0  0  0  0  0  0  0  0  0  0
   -2.0661  -10.6994   18.1916 C   0  0  0  0  0  0  0  0  0  0  0  0
    5.2703   -7.5691   27.1123 C   0  0  0  0  0  0  0  0  0  0  0  0
    1.6204   -9.9887   17.2935 C   0  0  0  0  0  0  0  0  0  0  0  0
    1.8931   -7.9265   16.2047 C   0  0  0  0  0  0  0  0  0  0  0  0
    2.4396   -9.0801   16.7132 C   0  0  0  0  0  0  0  0  0  0  0  0
   -0.2575   -8.6234   16.8582 C   0  0  0  0  0  0  0  0  0  0  0  0
    4.0614   -7.0367   27.0106 N   0  0  0  0  0  0  0  0  0  0  0  0
   -2.9133  -11.6279   18.7578 C   0  0  0  0  0  0  0  0  0  0  0  0
    4.5688  -10.1291   29.5758 C   0  0  0  0  0  0  0  0  0  0  0  0
    2.1008   -9.0410   29.1852 N   0  0  0  0  0  0  0  0  0  0  0  0
    3.4829  -10.5697   30.2091 N   0  0  0  0  0  0  0  0  0  0  0  0
   -0.3363   -6.1172   27.5628 C   0  0  0  0  0  0  0  0  0  0  0  0
    3.0331   -7.4400   27.6362 C   0  0  0  0  0  0  0  0  0  0  0  0
    5.4553   -8.5933   27.9644 C   0  0  0  0  0  0  0  0  0  0  0  0
   -2.3870  -12.8440   19.2512 C   0  0  0  0  0  0  0  0  0  0  0  0
    0.5331   -7.6964   16.2751 C   0  0  0  0  0  0  0  0  0  0  0  0
   -0.6740  -10.8737   18.0482 C   0  0  0  0  0  0  0  0  0  0  0  0
    5.6751  -10.5870   29.7637 O   0  0  0  0  0  0  0  0  0  0  0  0
    1.7612   -5.6483   26.7172 C   0  0  0  0  0  0  0  0  0  0  0  0
    0.2221   -9.8326   17.4055 C   0  0  0  0  0  0  0  0  0  0  0  0
    4.3850   -9.0730   28.6745 C   0  0  0  0  0  0  0  0  0  0  0  0
  1  7  4  0
  1 22  4  0
  2 17  4  0
  2 20  4  0
  2 28  4  0
  3  6  1  0
  3 19  1  0
  4 19  1  0
  4 26  1  0
  5 17  4  0
  5 18  4  0
  6 20  1  0
  6 26  1  0
  7 24  4  0
  8 15  4  0
  8 24  4  0
  9 14  4  0
  9 21  4  0
 10 12  4  0
 10 27  4  0
 11 12  4  0
 11 23  4  0
 13 23  4  0
 13 27  4  0
 14 20  4  0
 15 22  4  0
 16 18  4  0
 16 25  2  0
 16 28  4  0
 21 28  4  0
 24 27  1  0
M  END
$$$$

 Created by Python create_sdf_string function

 28 31  0  0  0  0  0  0  0  0999 V2000
   -1.0054  -13.0622   19.1198 C   0  0  0  0  0  0  0  0  0  0  0  0
    3.1478   -8.5360   28.5161 C   0  0  0  0  0  0  0  0  0  0  0  0
    0.5798   -7.1906   27.9330 C   0  0  0  0  0  0  0  0  0  0  0  0
    0.3978   -5.1561   26.6955 C   0  0  0  0  0  0  0  0  0  0  0  0
    2.3063  -10.0533   30.0125 C   0  0  0  0  0  0  0  0  0  0  0  0
    1.8591   -6.8254   27.4685 N   0  0  0  0  0  0  0  0  0  0  0  0
   -0.2167  -12.1055   18.5568 C   0  0  0  0  0  0  0  0  0  0  0  0
   -2.0661  -10.6994   18.1916 C   0  0  0  0  0  0  0  0  0  0  0  0
    5.2703   -7.5691   27.1123 C   0  0  0  0  0  0  0  0  0  0  0  0
    1.6204   -9.9887   17.2935 C   0  0  0  0  0  0  0  0  0  0  0  0
    1.8931   -7.9265   16.2047 C   0  0  0  0  0  0  0  0  0  0  0  0
    2.4396   -9.0801   16.7132 C   0  0  0  0  0  0  0  0  0  0  0  0
   -0.2575   -8.6234   16.8582 C   0  0  0  0  0  0  0  0  0  0  0  0
    4.0614   -7.0367   27.0106 N   0  0  0  0  0  0  0  0  0  0  0  0
   -2.9133  -11.6279   18.7578 C   0  0  0  0  0  0  0  0  0  0  0  0
    4.5688  -10.1291   29.5758 C   0  0  0  0  0  0  0  0  0  0  0  0
    2.1008   -9.0410   29.1852 N   0  0  0  0  0  0  0  0  0  0  0  0
    3.4829  -10.5697   30.2091 N   0  0  0  0  0  0  0  0  0  0  0  0
   -0.3363   -6.1172   27.5628 C   0  0  0  0  0  0  0  0  0  0  0  0
    3.0331   -7.4400   27.6362 C   0  0  0  0  0  0  0  0  0  0  0  0
    5.4553   -8.5933   27.9644 C   0  0  0  0  0  0  0  0  0  0  0  0
   -2.3870  -12.8440   19.2512 C   0  0  0  0  0  0  0  0  0  0  0  0
    0.5331   -7.6964   16.2751 C   0  0  0  0  0  0  0  0  0  0  0  0
   -0.6740  -10.8737   18.0482 C   0  0  0  0  0  0  0  0  0  0  0  0
    5.6751  -10.5870   29.7637 O   0  0  0  0  0  0  0  0  0  0  0  0
    1.7612   -5.6483   26.7172 C   0  0  0  0  0  0  0  0  0  0  0  0
    0.2221   -9.8326   17.4055 C   0  0  0  0  0  0  0  0  0  0  0  0
    4.3850   -9.0730   28.6745 C   0  0  0  0  0  0  0  0  0  0  0  0
  1  7  4  0
  1 22  4  0
  2 17  4  0
  2 20  4  0
  2 28  4  0
  3  6  1  0
  3 19  1  0
  4 19  1  0
  4 26  1  0
  5 17  4  0
  5 18  4  0
  6 20  1  0
  6 26  1  0
  7 24  4  0
  8 15  4  0
  8 24  4  0
  9 14  4  0
  9 21  4  0
 10 12  4  0
 10 27  4  0
 11 12  4  0
 11 23  4  0
 13 23  4  0
 13 27  4  0
 14 20  4  0
 15 22  4  0
 16 18  4  0
 16 25  2  0
 16 28  4  0
 21 28  4  0
 24 27  1  0
M  END
$$$$

 Created by Python create_sdf_string function

 28 31  0  0  0  0  0  0  0  0999 V2000
   -1.0054  -13.0622   19.1198 C   0  0  0  0  0  0  0  0  0  0  0  0
    3.1478   -8.5360   28.5161 C   0  0  0  0  0  0  0  0  0  0  0  0
    0.5798   -7.1906   27.9330 C   0  0  0  0  0  0  0  0  0  0  0  0
    0.3978   -5.1561   26.6955 C   0  0  0  0  0  0  0  0  0  0  0  0
    2.3063  -10.0533   30.0125 C   0  0  0  0  0  0  0  0  0  0  0  0
    1.8591   -6.8254   27.4685 N   0  0  0  0  0  0  0  0  0  0  0  0
   -0.2167  -12.1055   18.5568 C   0  0  0  0  0  0  0  0  0  0  0  0
   -2.0661  -10.6994   18.1916 C   0  0  0  0  0  0  0  0  0  0  0  0
    5.2703   -7.5691   27.1123 C   0  0  0  0  0  0  0  0  0  0  0  0
    1.6204   -9.9887   17.2935 C   0  0  0  0  0  0  0  0  0  0  0  0
    1.8931   -7.9265   16.2047 C   0  0  0  0  0  0  0  0  0  0  0  0
    2.4396   -9.0801   16.7132 C   0  0  0  0  0  0  0  0  0  0  0  0
   -0.2575   -8.6234   16.8582 C   0  0  0  0  0  0  0  0  0  0  0  0
    4.0614   -7.0367   27.0106 N   0  0  0  0  0  0  0  0  0  0  0  0
   -2.9133  -11.6279   18.7578 C   0  0  0  0  0  0  0  0  0  0  0  0
    4.5688  -10.1291   29.5758 C   0  0  0  0  0  0  0  0  0  0  0  0
    2.1008   -9.0410   29.1852 N   0  0  0  0  0  0  0  0  0  0  0  0
    3.4829  -10.5697   30.2091 N   0  0  0  0  0  0  0  0  0  0  0  0
   -0.3363   -6.1172   27.5628 C   0  0  0  0  0  0  0  0  0  0  0  0
    3.0331   -7.4400   27.6362 C   0  0  0  0  0  0  0  0  0  0  0  0
    5.4553   -8.5933   27.9644 C   0  0  0  0  0  0  0  0  0  0  0  0
   -2.3870  -12.8440   19.2512 C   0  0  0  0  0  0  0  0  0  0  0  0
    0.5331   -7.6964   16.2751 C   0  0  0  0  0  0  0  0  0  0  0  0
   -0.6740  -10.8737   18.0482 C   0  0  0  0  0  0  0  0  0  0  0  0
    5.6751  -10.5870   29.7637 O   0  0  0  0  0  0  0  0  0  0  0  0
    1.7612   -5.6483   26.7172 C   0  0  0  0  0  0  0  0  0  0  0  0
    0.2221   -9.8326   17.4055 C   0  0  0  0  0  0  0  0  0  0  0  0
    4.3850   -9.0730   28.6745 C   0  0  0  0  0  0  0  0  0  0  0  0
  1  7  4  0
  1 22  4  0
  2 17  4  0
  2 20  4  0
  2 28  4  0
  3  6  1  0
  3 19  1  0
  4 19  1  0
  4 26  1  0
  5 17  4  0
  5 18  4  0
  6 20  1  0
  6 26  1  0
  7 24  4  0
  8 15  4  0
  8 24  4  0
  9 14  4  0
  9 21  4  0
 10 12  4  0
 10 27  4  0
 11 12  4  0
 11 23  4  0
 13 23  4  0
 13 27  4  0
 14 20  4  0
 15 22  4  0
 16 18  4  0
 16 25  2  0
 16 28  4  0
 21 28  4  0
 24 27  1  0
M  END
$$$$

 Created by Python create_sdf_string function

 28 31  0  0  0  0  0  0  0  0999 V2000
   -1.0054  -13.0622   19.1198 C   0  0  0  0  0  0  0  0  0  0  0  0
    3.1478   -8.5360   28.5161 C   0  0  0  0  0  0  0  0  0  0  0  0
    0.5798   -7.1906   27.9330 C   0  0  0  0  0  0  0  0  0  0  0  0
    0.3978   -5.1561   26.6955 C   0  0  0  0  0  0  0  0  0  0  0  0
    2.3063  -10.0533   30.0125 C   0  0  0  0  0  0  0  0  0  0  0  0
    1.8591   -6.8254   27.4685 N   0  0  0  0  0  0  0  0  0  0  0  0
   -0.2167  -12.1055   18.5568 C   0  0  0  0  0  0  0  0  0  0  0  0
   -2.0661  -10.6994   18.1916 C   0  0  0  0  0  0  0  0  0  0  0  0
    5.2703   -7.5691   27.1123 C   0  0  0  0  0  0  0  0  0  0  0  0
    1.6204   -9.9887   17.2935 C   0  0  0  0  0  0  0  0  0  0  0  0
    1.8931   -7.9265   16.2047 C   0  0  0  0  0  0  0  0  0  0  0  0
    2.4396   -9.0801   16.7132 C   0  0  0  0  0  0  0  0  0  0  0  0
   -0.2575   -8.6234   16.8582 C   0  0  0  0  0  0  0  0  0  0  0  0
    4.0614   -7.0367   27.0106 N   0  0  0  0  0  0  0  0  0  0  0  0
   -2.9133  -11.6279   18.7578 C   0  0  0  0  0  0  0  0  0  0  0  0
    4.5688  -10.1291   29.5758 C   0  0  0  0  0  0  0  0  0  0  0  0
    2.1008   -9.0410   29.1852 N   0  0  0  0  0  0  0  0  0  0  0  0
    3.4829  -10.5697   30.2091 N   0  0  0  0  0  0  0  0  0  0  0  0
   -0.3363   -6.1172   27.5628 C   0  0  0  0  0  0  0  0  0  0  0  0
    3.0331   -7.4400   27.6362 C   0  0  0  0  0  0  0  0  0  0  0  0
    5.4553   -8.5933   27.9644 C   0  0  0  0  0  0  0  0  0  0  0  0
   -2.3870  -12.8440   19.2512 C   0  0  0  0  0  0  0  0  0  0  0  0
    0.5331   -7.6964   16.2751 C   0  0  0  0  0  0  0  0  0  0  0  0
   -0.6740  -10.8737   18.0482 C   0  0  0  0  0  0  0  0  0  0  0  0
    5.6751  -10.5870   29.7637 O   0  0  0  0  0  0  0  0  0  0  0  0
    1.7612   -5.6483   26.7172 C   0  0  0  0  0  0  0  0  0  0  0  0
    0.2221   -9.8326   17.4055 C   0  0  0  0  0  0  0  0  0  0  0  0
    4.3850   -9.0730   28.6745 C   0  0  0  0  0  0  0  0  0  0  0  0
  1  7  4  0
  1 22  4  0
  2 17  4  0
  2 20  4  0
  2 28  4  0
  3  6  1  0
  3 19  1  0
  4 19  1  0
  4 26  1  0
  5 17  4  0
  5 18  4  0
  6 20  1  0
  6 26  1  0
  7 24  4  0
  8 15  4  0
  8 24  4  0
  9 14  4  0
  9 21  4  0
 10 12  4  0
 10 27  4  0
 11 12  4  0
 11 23  4  0
 13 23  4  0
 13 27  4  0
 14 20  4  0
 15 22  4  0
 16 18  4  0
 16 25  2  0
 16 28  4  0
 21 28  4  0
 24 27  1  0
M  END
$$$$

 Created by Python create_sdf_string function

 28 31  0  0  0  0  0  0  0  0999 V2000
   -1.0054  -13.0622   19.1198 C   0  0  0  0  0  0  0  0  0  0  0  0
    3.1478   -8.5360   28.5161 C   0  0  0  0  0  0  0  0  0  0  0  0
    0.5798   -7.1906   27.9330 C   0  0  0  0  0  0  0  0  0  0  0  0
    0.3978   -5.1561   26.6955 C   0  0  0  0  0  0  0  0  0  0  0  0
    2.3063  -10.0533   30.0125 C   0  0  0  0  0  0  0  0  0  0  0  0
    1.8591   -6.8254   27.4685 N   0  0  0  0  0  0  0  0  0  0  0  0
   -0.2167  -12.1055   18.5568 C   0  0  0  0  0  0  0  0  0  0  0  0
   -2.0661  -10.6994   18.1916 C   0  0  0  0  0  0  0  0  0  0  0  0
    5.2703   -7.5691   27.1123 C   0  0  0  0  0  0  0  0  0  0  0  0
    1.6204   -9.9887   17.2935 C   0  0  0  0  0  0  0  0  0  0  0  0
    1.8931   -7.9265   16.2047 C   0  0  0  0  0  0  0  0  0  0  0  0
    2.4396   -9.0801   16.7132 C   0  0  0  0  0  0  0  0  0  0  0  0
   -0.2575   -8.6234   16.8582 C   0  0  0  0  0  0  0  0  0  0  0  0
    4.0614   -7.0367   27.0106 N   0  0  0  0  0  0  0  0  0  0  0  0
   -2.9133  -11.6279   18.7578 C   0  0  0  0  0  0  0  0  0  0  0  0
    4.5688  -10.1291   29.5758 C   0  0  0  0  0  0  0  0  0  0  0  0
    2.1008   -9.0410   29.1852 N   0  0  0  0  0  0  0  0  0  0  0  0
    3.4829  -10.5697   30.2091 N   0  0  0  0  0  0  0  0  0  0  0  0
   -0.3363   -6.1172   27.5628 C   0  0  0  0  0  0  0  0  0  0  0  0
    3.0331   -7.4400   27.6362 C   0  0  0  0  0  0  0  0  0  0  0  0
    5.4553   -8.5933   27.9644 C   0  0  0  0  0  0  0  0  0  0  0  0
   -2.3870  -12.8440   19.2512 C   0  0  0  0  0  0  0  0  0  0  0  0
    0.5331   -7.6964   16.2751 C   0  0  0  0  0  0  0  0  0  0  0  0
   -0.6740  -10.8737   18.0482 C   0  0  0  0  0  0  0  0  0  0  0  0
    5.6751  -10.5870   29.7637 O   0  0  0  0  0  0  0  0  0  0  0  0
    1.7612   -5.6483   26.7172 C   0  0  0  0  0  0  0  0  0  0  0  0
    0.2221   -9.8326   17.4055 C   0  0  0  0  0  0  0  0  0  0  0  0
    4.3850   -9.0730   28.6745 C   0  0  0  0  0  0  0  0  0  0  0  0
  1  7  4  0
  1 22  4  0
  2 17  4  0
  2 20  4  0
  2 28  4  0
  3  6  1  0
  3 19  1  0
  4 19  1  0
  4 26  1  0
  5 17  4  0
  5 18  4  0
  6 20  1  0
  6 26  1  0
  7 24  4  0
  8 15  4  0
  8 24  4  0
  9 14  4  0
  9 21  4  0
 10 12  4  0
 10 27  4  0
 11 12  4  0
 11 23  4  0
 13 23  4  0
 13 27  4  0
 14 20  4  0
 15 22  4  0
 16 18  4  0
 16 25  2  0
 16 28  4  0
 21 28  4  0
 24 27  1  0
M  END
$$$$

 Created by Python create_sdf_string function

 28 31  0  0  0  0  0  0  0  0999 V2000
   -1.0054  -13.0622   19.1198 C   0  0  0  0  0  0  0  0  0  0  0  0
    3.1478   -8.5360   28.5161 C   0  0  0  0  0  0  0  0  0  0  0  0
    0.5798   -7.1906   27.9330 C   0  0  0  0  0  0  0  0  0  0  0  0
    0.3978   -5.1561   26.6955 C   0  0  0  0  0  0  0  0  0  0  0  0
    2.3063  -10.0533   30.0125 C   0  0  0  0  0  0  0  0  0  0  0  0
    1.8591   -6.8254   27.4685 N   0  0  0  0  0  0  0  0  0  0  0  0
   -0.2167  -12.1055   18.5568 C   0  0  0  0  0  0  0  0  0  0  0  0
   -2.0661  -10.6994   18.1916 C   0  0  0  0  0  0  0  0  0  0  0  0
    5.2703   -7.5691   27.1123 C   0  0  0  0  0  0  0  0  0  0  0  0
    1.6204   -9.9887   17.2935 C   0  0  0  0  0  0  0  0  0  0  0  0
    1.8931   -7.9265   16.2047 C   0  0  0  0  0  0  0  0  0  0  0  0
    2.4396   -9.0801   16.7132 C   0  0  0  0  0  0  0  0  0  0  0  0
   -0.2575   -8.6234   16.8582 C   0  0  0  0  0  0  0  0  0  0  0  0
    4.0614   -7.0367   27.0106 N   0  0  0  0  0  0  0  0  0  0  0  0
   -2.9133  -11.6279   18.7578 C   0  0  0  0  0  0  0  0  0  0  0  0
    4.5688  -10.1291   29.5758 C   0  0  0  0  0  0  0  0  0  0  0  0
    2.1008   -9.0410   29.1852 N   0  0  0  0  0  0  0  0  0  0  0  0
    3.4829  -10.5697   30.2091 N   0  0  0  0  0  0  0  0  0  0  0  0
   -0.3363   -6.1172   27.5628 C   0  0  0  0  0  0  0  0  0  0  0  0
    3.0331   -7.4400   27.6362 C   0  0  0  0  0  0  0  0  0  0  0  0
    5.4553   -8.5933   27.9644 C   0  0  0  0  0  0  0  0  0  0  0  0
   -2.3870  -12.8440   19.2512 C   0  0  0  0  0  0  0  0  0  0  0  0
    0.5331   -7.6964   16.2751 C   0  0  0  0  0  0  0  0  0  0  0  0
   -0.6740  -10.8737   18.0482 C   0  0  0  0  0  0  0  0  0  0  0  0
    5.6751  -10.5870   29.7637 O   0  0  0  0  0  0  0  0  0  0  0  0
    1.7612   -5.6483   26.7172 C   0  0  0  0  0  0  0  0  0  0  0  0
    0.2221   -9.8326   17.4055 C   0  0  0  0  0  0  0  0  0  0  0  0
    4.3850   -9.0730   28.6745 C   0  0  0  0  0  0  0  0  0  0  0  0
  1  7  4  0
  1 22  4  0
  2 17  4  0
  2 20  4  0
  2 28  4  0
  3  6  1  0
  3 19  1  0
  4 19  1  0
  4 26  1  0
  5 17  4  0
  5 18  4  0
  6 20  1  0
  6 26  1  0
  7 24  4  0
  8 15  4  0
  8 24  4  0
  9 14  4  0
  9 21  4  0
 10 12  4  0
 10 27  4  0
 11 12  4  0
 11 23  4  0
 13 23  4  0
 13 27  4  0
 14 20  4  0
 15 22  4  0
 16 18  4  0
 16 25  2  0
 16 28  4  0
 21 28  4  0
 24 27  1  0
M  END
$$$$

 Created by Python create_sdf_string function

 28 31  0  0  0  0  0  0  0  0999 V2000
   -1.0054  -13.0622   19.1198 C   0  0  0  0  0  0  0  0  0  0  0  0
    3.1478   -8.5360   28.5161 C   0  0  0  0  0  0  0  0  0  0  0  0
    0.5798   -7.1906   27.9330 C   0  0  0  0  0  0  0  0  0  0  0  0
    0.3978   -5.1561   26.6955 C   0  0  0  0  0  0  0  0  0  0  0  0
    2.3063  -10.0533   30.0125 C   0  0  0  0  0  0  0  0  0  0  0  0
    1.8591   -6.8254   27.4685 N   0  0  0  0  0  0  0  0  0  0  0  0
   -0.2167  -12.1055   18.5568 C   0  0  0  0  0  0  0  0  0  0  0  0
   -2.0661  -10.6994   18.1916 C   0  0  0  0  0  0  0  0  0  0  0  0
    5.2703   -7.5691   27.1123 C   0  0  0  0  0  0  0  0  0  0  0  0
    1.6204   -9.9887   17.2935 C   0  0  0  0  0  0  0  0  0  0  0  0
    1.8931   -7.9265   16.2047 C   0  0  0  0  0  0  0  0  0  0  0  0
    2.4396   -9.0801   16.7132 C   0  0  0  0  0  0  0  0  0  0  0  0
   -0.2575   -8.6234   16.8582 C   0  0  0  0  0  0  0  0  0  0  0  0
    4.0614   -7.0367   27.0106 N   0  0  0  0  0  0  0  0  0  0  0  0
   -2.9133  -11.6279   18.7578 C   0  0  0  0  0  0  0  0  0  0  0  0
    4.5688  -10.1291   29.5758 C   0  0  0  0  0  0  0  0  0  0  0  0
    2.1008   -9.0410   29.1852 N   0  0  0  0  0  0  0  0  0  0  0  0
    3.4829  -10.5697   30.2091 N   0  0  0  0  0  0  0  0  0  0  0  0
   -0.3363   -6.1172   27.5628 C   0  0  0  0  0  0  0  0  0  0  0  0
    3.0331   -7.4400   27.6362 C   0  0  0  0  0  0  0  0  0  0  0  0
    5.4553   -8.5933   27.9644 C   0  0  0  0  0  0  0  0  0  0  0  0
   -2.3870  -12.8440   19.2512 C   0  0  0  0  0  0  0  0  0  0  0  0
    0.5331   -7.6964   16.2751 C   0  0  0  0  0  0  0  0  0  0  0  0
   -0.6740  -10.8737   18.0482 C   0  0  0  0  0  0  0  0  0  0  0  0
    5.6751  -10.5870   29.7637 O   0  0  0  0  0  0  0  0  0  0  0  0
    1.7612   -5.6483   26.7172 C   0  0  0  0  0  0  0  0  0  0  0  0
    0.2221   -9.8326   17.4055 C   0  0  0  0  0  0  0  0  0  0  0  0
    4.3850   -9.0730   28.6745 C   0  0  0  0  0  0  0  0  0  0  0  0
  1  7  4  0
  1 22  4  0
  2 17  4  0
  2 20  4  0
  2 28  4  0
  3  6  1  0
  3 19  1  0
  4 19  1  0
  4 26  1  0
  5 17  4  0
  5 18  4  0
  6 20  1  0
  6 26  1  0
  7 24  4  0
  8 15  4  0
  8 24  4  0
  9 14  4  0
  9 21  4  0
 10 12  4  0
 10 27  4  0
 11 12  4  0
 11 23  4  0
 13 23  4  0
 13 27  4  0
 14 20  4  0
 15 22  4  0
 16 18  4  0
 16 25  2  0
 16 28  4  0
 21 28  4  0
 24 27  1  0
M  END
$$$$

 Created by Python create_sdf_string function

 28 31  0  0  0  0  0  0  0  0999 V2000
   -1.0054  -13.0622   19.1198 C   0  0  0  0  0  0  0  0  0  0  0  0
    3.1478   -8.5360   28.5161 C   0  0  0  0  0  0  0  0  0  0  0  0
    0.5798   -7.1906   27.9330 C   0  0  0  0  0  0  0  0  0  0  0  0
    0.3978   -5.1561   26.6955 C   0  0  0  0  0  0  0  0  0  0  0  0
    2.3063  -10.0533   30.0125 C   0  0  0  0  0  0  0  0  0  0  0  0
    1.8591   -6.8254   27.4685 N   0  0  0  0  0  0  0  0  0  0  0  0
   -0.2167  -12.1055   18.5568 C   0  0  0  0  0  0  0  0  0  0  0  0
   -2.0661  -10.6994   18.1916 C   0  0  0  0  0  0  0  0  0  0  0  0
    5.2703   -7.5691   27.1123 C   0  0  0  0  0  0  0  0  0  0  0  0
    1.6204   -9.9887   17.2935 C   0  0  0  0  0  0  0  0  0  0  0  0
    1.8931   -7.9265   16.2047 C   0  0  0  0  0  0  0  0  0  0  0  0
    2.4396   -9.0801   16.7132 C   0  0  0  0  0  0  0  0  0  0  0  0
   -0.2575   -8.6234   16.8582 C   0  0  0  0  0  0  0  0  0  0  0  0
    4.0614   -7.0367   27.0106 N   0  0  0  0  0  0  0  0  0  0  0  0
   -2.9133  -11.6279   18.7578 C   0  0  0  0  0  0  0  0  0  0  0  0
    4.5688  -10.1291   29.5758 C   0  0  0  0  0  0  0  0  0  0  0  0
    2.1008   -9.0410   29.1852 N   0  0  0  0  0  0  0  0  0  0  0  0
    3.4829  -10.5697   30.2091 N   0  0  0  0  0  0  0  0  0  0  0  0
   -0.3363   -6.1172   27.5628 C   0  0  0  0  0  0  0  0  0  0  0  0
    3.0331   -7.4400   27.6362 C   0  0  0  0  0  0  0  0  0  0  0  0
    5.4553   -8.5933   27.9644 C   0  0  0  0  0  0  0  0  0  0  0  0
   -2.3870  -12.8440   19.2512 C   0  0  0  0  0  0  0  0  0  0  0  0
    0.5331   -7.6964   16.2751 C   0  0  0  0  0  0  0  0  0  0  0  0
   -0.6740  -10.8737   18.0482 C   0  0  0  0  0  0  0  0  0  0  0  0
    5.6751  -10.5870   29.7637 O   0  0  0  0  0  0  0  0  0  0  0  0
    1.7612   -5.6483   26.7172 C   0  0  0  0  0  0  0  0  0  0  0  0
    0.2221   -9.8326   17.4055 C   0  0  0  0  0  0  0  0  0  0  0  0
    4.3850   -9.0730   28.6745 C   0  0  0  0  0  0  0  0  0  0  0  0
  1  7  4  0
  1 22  4  0
  2 17  4  0
  2 20  4  0
  2 28  4  0
  3  6  1  0
  3 19  1  0
  4 19  1  0
  4 26  1  0
  5 17  4  0
  5 18  4  0
  6 20  1  0
  6 26  1  0
  7 24  4  0
  8 15  4  0
  8 24  4  0
  9 14  4  0
  9 21  4  0
 10 12  4  0
 10 27  4  0
 11 12  4  0
 11 23  4  0
 13 23  4  0
 13 27  4  0
 14 20  4  0
 15 22  4  0
 16 18  4  0
 16 25  2  0
 16 28  4  0
 21 28  4  0
 24 27  1  0
M  END
$$$$

 Created by Python create_sdf_string function

 28 31  0  0  0  0  0  0  0  0999 V2000
   -1.0054  -13.0622   19.1198 C   0  0  0  0  0  0  0  0  0  0  0  0
    3.1478   -8.5360   28.5161 C   0  0  0  0  0  0  0  0  0  0  0  0
    0.5798   -7.1906   27.9330 C   0  0  0  0  0  0  0  0  0  0  0  0
    0.3978   -5.1561   26.6955 C   0  0  0  0  0  0  0  0  0  0  0  0
    2.3063  -10.0533   30.0125 C   0  0  0  0  0  0  0  0  0  0  0  0
    1.8591   -6.8254   27.4685 N   0  0  0  0  0  0  0  0  0  0  0  0
   -0.2167  -12.1055   18.5568 C   0  0  0  0  0  0  0  0  0  0  0  0
   -2.0661  -10.6994   18.1916 C   0  0  0  0  0  0  0  0  0  0  0  0
    5.2703   -7.5691   27.1123 C   0  0  0  0  0  0  0  0  0  0  0  0
    1.6204   -9.9887   17.2935 C   0  0  0  0  0  0  0  0  0  0  0  0
    1.8931   -7.9265   16.2047 C   0  0  0  0  0  0  0  0  0  0  0  0
    2.4396   -9.0801   16.7132 C   0  0  0  0  0  0  0  0  0  0  0  0
   -0.2575   -8.6234   16.8582 C   0  0  0  0  0  0  0  0  0  0  0  0
    4.0614   -7.0367   27.0106 N   0  0  0  0  0  0  0  0  0  0  0  0
   -2.9133  -11.6279   18.7578 C   0  0  0  0  0  0  0  0  0  0  0  0
    4.5688  -10.1291   29.5758 C   0  0  0  0  0  0  0  0  0  0  0  0
    2.1008   -9.0410   29.1852 N   0  0  0  0  0  0  0  0  0  0  0  0
    3.4829  -10.5697   30.2091 N   0  0  0  0  0  0  0  0  0  0  0  0
   -0.3363   -6.1172   27.5628 C   0  0  0  0  0  0  0  0  0  0  0  0
    3.0331   -7.4400   27.6362 C   0  0  0  0  0  0  0  0  0  0  0  0
    5.4553   -8.5933   27.9644 C   0  0  0  0  0  0  0  0  0  0  0  0
   -2.3870  -12.8440   19.2512 C   0  0  0  0  0  0  0  0  0  0  0  0
    0.5331   -7.6964   16.2751 C   0  0  0  0  0  0  0  0  0  0  0  0
   -0.6740  -10.8737   18.0482 C   0  0  0  0  0  0  0  0  0  0  0  0
    5.6751  -10.5870   29.7637 O   0  0  0  0  0  0  0  0  0  0  0  0
    1.7612   -5.6483   26.7172 C   0  0  0  0  0  0  0  0  0  0  0  0
    0.2221   -9.8326   17.4055 C   0  0  0  0  0  0  0  0  0  0  0  0
    4.3850   -9.0730   28.6745 C   0  0  0  0  0  0  0  0  0  0  0  0
  1  7  4  0
  1 22  4  0
  2 17  4  0
  2 20  4  0
  2 28  4  0
  3  6  1  0
  3 19  1  0
  4 19  1  0
  4 26  1  0
  5 17  4  0
  5 18  4  0
  6 20  1  0
  6 26  1  0
  7 24  4  0
  8 15  4  0
  8 24  4  0
  9 14  4  0
  9 21  4  0
 10 12  4  0
 10 27  4  0
 11 12  4  0
 11 23  4  0
 13 23  4  0
 13 27  4  0
 14 20  4  0
 15 22  4  0
 16 18  4  0
 16 25  2  0
 16 28  4  0
 21 28  4  0
 24 27  1  0
M  END
$$$$

 Created by Python create_sdf_string function

 28 31  0  0  0  0  0  0  0  0999 V2000
   -1.0054  -13.0622   19.1198 C   0  0  0  0  0  0  0  0  0  0  0  0
    3.1478   -8.5360   28.5161 C   0  0  0  0  0  0  0  0  0  0  0  0
    0.5798   -7.1906   27.9330 C   0  0  0  0  0  0  0  0  0  0  0  0
    0.3978   -5.1561   26.6955 C   0  0  0  0  0  0  0  0  0  0  0  0
    2.3063  -10.0533   30.0125 C   0  0  0  0  0  0  0  0  0  0  0  0
    1.8591   -6.8254   27.4685 N   0  0  0  0  0  0  0  0  0  0  0  0
   -0.2167  -12.1055   18.5568 C   0  0  0  0  0  0  0  0  0  0  0  0
   -2.0661  -10.6994   18.1916 C   0  0  0  0  0  0  0  0  0  0  0  0
    5.2703   -7.5691   27.1123 C   0  0  0  0  0  0  0  0  0  0  0  0
    1.6204   -9.9887   17.2935 C   0  0  0  0  0  0  0  0  0  0  0  0
    1.8931   -7.9265   16.2047 C   0  0  0  0  0  0  0  0  0  0  0  0
    2.4396   -9.0801   16.7132 C   0  0  0  0  0  0  0  0  0  0  0  0
   -0.2575   -8.6234   16.8582 C   0  0  0  0  0  0  0  0  0  0  0  0
    4.0614   -7.0367   27.0106 N   0  0  0  0  0  0  0  0  0  0  0  0
   -2.9133  -11.6279   18.7578 C   0  0  0  0  0  0  0  0  0  0  0  0
    4.5688  -10.1291   29.5758 C   0  0  0  0  0  0  0  0  0  0  0  0
    2.1008   -9.0410   29.1852 N   0  0  0  0  0  0  0  0  0  0  0  0
    3.4829  -10.5697   30.2091 N   0  0  0  0  0  0  0  0  0  0  0  0
   -0.3363   -6.1172   27.5628 C   0  0  0  0  0  0  0  0  0  0  0  0
    3.0331   -7.4400   27.6362 C   0  0  0  0  0  0  0  0  0  0  0  0
    5.4553   -8.5933   27.9644 C   0  0  0  0  0  0  0  0  0  0  0  0
   -2.3870  -12.8440   19.2512 C   0  0  0  0  0  0  0  0  0  0  0  0
    0.5331   -7.6964   16.2751 C   0  0  0  0  0  0  0  0  0  0  0  0
   -0.6740  -10.8737   18.0482 C   0  0  0  0  0  0  0  0  0  0  0  0
    5.6751  -10.5870   29.7637 O   0  0  0  0  0  0  0  0  0  0  0  0
    1.7612   -5.6483   26.7172 C   0  0  0  0  0  0  0  0  0  0  0  0
    0.2221   -9.8326   17.4055 C   0  0  0  0  0  0  0  0  0  0  0  0
    4.3850   -9.0730   28.6745 C   0  0  0  0  0  0  0  0  0  0  0  0
  1  7  4  0
  1 22  4  0
  2 17  4  0
  2 20  4  0
  2 28  4  0
  3  6  1  0
  3 19  1  0
  4 19  1  0
  4 26  1  0
  5 17  4  0
  5 18  4  0
  6 20  1  0
  6 26  1  0
  7 24  4  0
  8 15  4  0
  8 24  4  0
  9 14  4  0
  9 21  4  0
 10 12  4  0
 10 27  4  0
 11 12  4  0
 11 23  4  0
 13 23  4  0
 13 27  4  0
 14 20  4  0
 15 22  4  0
 16 18  4  0
 16 25  2  0
 16 28  4  0
 21 28  4  0
 24 27  1  0
M  END
$$$$

 Created by Python create_sdf_string function

 28 31  0  0  0  0  0  0  0  0999 V2000
   -1.0054  -13.0622   19.1198 C   0  0  0  0  0  0  0  0  0  0  0  0
    3.1478   -8.5360   28.5161 C   0  0  0  0  0  0  0  0  0  0  0  0
    0.5798   -7.1906   27.9330 C   0  0  0  0  0  0  0  0  0  0  0  0
    0.3978   -5.1561   26.6955 C   0  0  0  0  0  0  0  0  0  0  0  0
    2.3063  -10.0533   30.0125 C   0  0  0  0  0  0  0  0  0  0  0  0
    1.8591   -6.8254   27.4685 N   0  0  0  0  0  0  0  0  0  0  0  0
   -0.2167  -12.1055   18.5568 C   0  0  0  0  0  0  0  0  0  0  0  0
   -2.0661  -10.6994   18.1916 C   0  0  0  0  0  0  0  0  0  0  0  0
    5.2703   -7.5691   27.1123 C   0  0  0  0  0  0  0  0  0  0  0  0
    1.6204   -9.9887   17.2935 C   0  0  0  0  0  0  0  0  0  0  0  0
    1.8931   -7.9265   16.2047 C   0  0  0  0  0  0  0  0  0  0  0  0
    2.4396   -9.0801   16.7132 C   0  0  0  0  0  0  0  0  0  0  0  0
   -0.2575   -8.6234   16.8582 C   0  0  0  0  0  0  0  0  0  0  0  0
    4.0614   -7.0367   27.0106 N   0  0  0  0  0  0  0  0  0  0  0  0
   -2.9133  -11.6279   18.7578 C   0  0  0  0  0  0  0  0  0  0  0  0
    4.5688  -10.1291   29.5758 C   0  0  0  0  0  0  0  0  0  0  0  0
    2.1008   -9.0410   29.1852 N   0  0  0  0  0  0  0  0  0  0  0  0
    3.4829  -10.5697   30.2091 N   0  0  0  0  0  0  0  0  0  0  0  0
   -0.3363   -6.1172   27.5628 C   0  0  0  0  0  0  0  0  0  0  0  0
    3.0331   -7.4400   27.6362 C   0  0  0  0  0  0  0  0  0  0  0  0
    5.4553   -8.5933   27.9644 C   0  0  0  0  0  0  0  0  0  0  0  0
   -2.3870  -12.8440   19.2512 C   0  0  0  0  0  0  0  0  0  0  0  0
    0.5331   -7.6964   16.2751 C   0  0  0  0  0  0  0  0  0  0  0  0
   -0.6740  -10.8737   18.0482 C   0  0  0  0  0  0  0  0  0  0  0  0
    5.6751  -10.5870   29.7637 O   0  0  0  0  0  0  0  0  0  0  0  0
    1.7612   -5.6483   26.7172 C   0  0  0  0  0  0  0  0  0  0  0  0
    0.2221   -9.8326   17.4055 C   0  0  0  0  0  0  0  0  0  0  0  0
    4.3850   -9.0730   28.6745 C   0  0  0  0  0  0  0  0  0  0  0  0
  1  7  4  0
  1 22  4  0
  2 17  4  0
  2 20  4  0
  2 28  4  0
  3  6  1  0
  3 19  1  0
  4 19  1  0
  4 26  1  0
  5 17  4  0
  5 18  4  0
  6 20  1  0
  6 26  1  0
  7 24  4  0
  8 15  4  0
  8 24  4  0
  9 14  4  0
  9 21  4  0
 10 12  4  0
 10 27  4  0
 11 12  4  0
 11 23  4  0
 13 23  4  0
 13 27  4  0
 14 20  4  0
 15 22  4  0
 16 18  4  0
 16 25  2  0
 16 28  4  0
 21 28  4  0
 24 27  1  0
M  END
$$$$

 Created by Python create_sdf_string function

 28 31  0  0  0  0  0  0  0  0999 V2000
   -1.0054  -13.0622   19.1198 C   0  0  0  0  0  0  0  0  0  0  0  0
    3.1478   -8.5360   28.5161 C   0  0  0  0  0  0  0  0  0  0  0  0
    0.5798   -7.1906   27.9330 C   0  0  0  0  0  0  0  0  0  0  0  0
    0.3978   -5.1561   26.6955 C   0  0  0  0  0  0  0  0  0  0  0  0
    2.3063  -10.0533   30.0125 C   0  0  0  0  0  0  0  0  0  0  0  0
    1.8591   -6.8254   27.4685 N   0  0  0  0  0  0  0  0  0  0  0  0
   -0.2167  -12.1055   18.5568 C   0  0  0  0  0  0  0  0  0  0  0  0
   -2.0661  -10.6994   18.1916 C   0  0  0  0  0  0  0  0  0  0  0  0
    5.2703   -7.5691   27.1123 C   0  0  0  0  0  0  0  0  0  0  0  0
    1.6204   -9.9887   17.2935 C   0  0  0  0  0  0  0  0  0  0  0  0
    1.8931   -7.9265   16.2047 C   0  0  0  0  0  0  0  0  0  0  0  0
    2.4396   -9.0801   16.7132 C   0  0  0  0  0  0  0  0  0  0  0  0
   -0.2575   -8.6234   16.8582 C   0  0  0  0  0  0  0  0  0  0  0  0
    4.0614   -7.0367   27.0106 N   0  0  0  0  0  0  0  0  0  0  0  0
   -2.9133  -11.6279   18.7578 C   0  0  0  0  0  0  0  0  0  0  0  0
    4.5688  -10.1291   29.5758 C   0  0  0  0  0  0  0  0  0  0  0  0
    2.1008   -9.0410   29.1852 N   0  0  0  0  0  0  0  0  0  0  0  0
    3.4829  -10.5697   30.2091 N   0  0  0  0  0  0  0  0  0  0  0  0
   -0.3363   -6.1172   27.5628 C   0  0  0  0  0  0  0  0  0  0  0  0
    3.0331   -7.4400   27.6362 C   0  0  0  0  0  0  0  0  0  0  0  0
    5.4553   -8.5933   27.9644 C   0  0  0  0  0  0  0  0  0  0  0  0
   -2.3870  -12.8440   19.2512 C   0  0  0  0  0  0  0  0  0  0  0  0
    0.5331   -7.6964   16.2751 C   0  0  0  0  0  0  0  0  0  0  0  0
   -0.6740  -10.8737   18.0482 C   0  0  0  0  0  0  0  0  0  0  0  0
    5.6751  -10.5870   29.7637 O   0  0  0  0  0  0  0  0  0  0  0  0
    1.7612   -5.6483   26.7172 C   0  0  0  0  0  0  0  0  0  0  0  0
    0.2221   -9.8326   17.4055 C   0  0  0  0  0  0  0  0  0  0  0  0
    4.3850   -9.0730   28.6745 C   0  0  0  0  0  0  0  0  0  0  0  0
  1  7  4  0
  1 22  4  0
  2 17  4  0
  2 20  4  0
  2 28  4  0
  3  6  1  0
  3 19  1  0
  4 19  1  0
  4 26  1  0
  5 17  4  0
  5 18  4  0
  6 20  1  0
  6 26  1  0
  7 24  4  0
  8 15  4  0
  8 24  4  0
  9 14  4  0
  9 21  4  0
 10 12  4  0
 10 27  4  0
 11 12  4  0
 11 23  4  0
 13 23  4  0
 13 27  4  0
 14 20  4  0
 15 22  4  0
 16 18  4  0
 16 25  2  0
 16 28  4  0
 21 28  4  0
 24 27  1  0
M  END
$$$$

 Created by Python create_sdf_string function

 28 31  0  0  0  0  0  0  0  0999 V2000
   -1.0054  -13.0622   19.1198 C   0  0  0  0  0  0  0  0  0  0  0  0
    3.1478   -8.5360   28.5161 C   0  0  0  0  0  0  0  0  0  0  0  0
    0.5798   -7.1906   27.9330 C   0  0  0  0  0  0  0  0  0  0  0  0
    0.3978   -5.1561   26.6955 C   0  0  0  0  0  0  0  0  0  0  0  0
    2.3063  -10.0533   30.0125 C   0  0  0  0  0  0  0  0  0  0  0  0
    1.8591   -6.8254   27.4685 N   0  0  0  0  0  0  0  0  0  0  0  0
   -0.2167  -12.1055   18.5568 C   0  0  0  0  0  0  0  0  0  0  0  0
   -2.0661  -10.6994   18.1916 C   0  0  0  0  0  0  0  0  0  0  0  0
    5.2703   -7.5691   27.1123 C   0  0  0  0  0  0  0  0  0  0  0  0
    1.6204   -9.9887   17.2935 C   0  0  0  0  0  0  0  0  0  0  0  0
    1.8931   -7.9265   16.2047 C   0  0  0  0  0  0  0  0  0  0  0  0
    2.4396   -9.0801   16.7132 C   0  0  0  0  0  0  0  0  0  0  0  0
   -0.2575   -8.6234   16.8582 C   0  0  0  0  0  0  0  0  0  0  0  0
    4.0614   -7.0367   27.0106 N   0  0  0  0  0  0  0  0  0  0  0  0
   -2.9133  -11.6279   18.7578 C   0  0  0  0  0  0  0  0  0  0  0  0
    4.5688  -10.1291   29.5758 C   0  0  0  0  0  0  0  0  0  0  0  0
    2.1008   -9.0410   29.1852 N   0  0  0  0  0  0  0  0  0  0  0  0
    3.4829  -10.5697   30.2091 N   0  0  0  0  0  0  0  0  0  0  0  0
   -0.3363   -6.1172   27.5628 C   0  0  0  0  0  0  0  0  0  0  0  0
    3.0331   -7.4400   27.6362 C   0  0  0  0  0  0  0  0  0  0  0  0
    5.4553   -8.5933   27.9644 C   0  0  0  0  0  0  0  0  0  0  0  0
   -2.3870  -12.8440   19.2512 C   0  0  0  0  0  0  0  0  0  0  0  0
    0.5331   -7.6964   16.2751 C   0  0  0  0  0  0  0  0  0  0  0  0
   -0.6740  -10.8737   18.0482 C   0  0  0  0  0  0  0  0  0  0  0  0
    5.6751  -10.5870   29.7637 O   0  0  0  0  0  0  0  0  0  0  0  0
    1.7612   -5.6483   26.7172 C   0  0  0  0  0  0  0  0  0  0  0  0
    0.2221   -9.8326   17.4055 C   0  0  0  0  0  0  0  0  0  0  0  0
    4.3850   -9.0730   28.6745 C   0  0  0  0  0  0  0  0  0  0  0  0
  1  7  4  0
  1 22  4  0
  2 17  4  0
  2 20  4  0
  2 28  4  0
  3  6  1  0
  3 19  1  0
  4 19  1  0
  4 26  1  0
  5 17  4  0
  5 18  4  0
  6 20  1  0
  6 26  1  0
  7 24  4  0
  8 15  4  0
  8 24  4  0
  9 14  4  0
  9 21  4  0
 10 12  4  0
 10 27  4  0
 11 12  4  0
 11 23  4  0
 13 23  4  0
 13 27  4  0
 14 20  4  0
 15 22  4  0
 16 18  4  0
 16 25  2  0
 16 28  4  0
 21 28  4  0
 24 27  1  0
M  END
$$$$

 Created by Python create_sdf_string function

 28 31  0  0  0  0  0  0  0  0999 V2000
   -1.0054  -13.0622   19.1198 C   0  0  0  0  0  0  0  0  0  0  0  0
    3.1478   -8.5360   28.5161 C   0  0  0  0  0  0  0  0  0  0  0  0
    0.5798   -7.1906   27.9330 C   0  0  0  0  0  0  0  0  0  0  0  0
    0.3978   -5.1561   26.6955 C   0  0  0  0  0  0  0  0  0  0  0  0
    2.3063  -10.0533   30.0125 C   0  0  0  0  0  0  0  0  0  0  0  0
    1.8591   -6.8254   27.4685 N   0  0  0  0  0  0  0  0  0  0  0  0
   -0.2167  -12.1055   18.5568 C   0  0  0  0  0  0  0  0  0  0  0  0
   -2.0661  -10.6994   18.1916 C   0  0  0  0  0  0  0  0  0  0  0  0
    5.2703   -7.5691   27.1123 C   0  0  0  0  0  0  0  0  0  0  0  0
    1.6204   -9.9887   17.2935 C   0  0  0  0  0  0  0  0  0  0  0  0
    1.8931   -7.9265   16.2047 C   0  0  0  0  0  0  0  0  0  0  0  0
    2.4396   -9.0801   16.7132 C   0  0  0  0  0  0  0  0  0  0  0  0
   -0.2575   -8.6234   16.8582 C   0  0  0  0  0  0  0  0  0  0  0  0
    4.0614   -7.0367   27.0106 N   0  0  0  0  0  0  0  0  0  0  0  0
   -2.9133  -11.6279   18.7578 C   0  0  0  0  0  0  0  0  0  0  0  0
    4.5688  -10.1291   29.5758 C   0  0  0  0  0  0  0  0  0  0  0  0
    2.1008   -9.0410   29.1852 N   0  0  0  0  0  0  0  0  0  0  0  0
    3.4829  -10.5697   30.2091 N   0  0  0  0  0  0  0  0  0  0  0  0
   -0.3363   -6.1172   27.5628 C   0  0  0  0  0  0  0  0  0  0  0  0
    3.0331   -7.4400   27.6362 C   0  0  0  0  0  0  0  0  0  0  0  0
    5.4553   -8.5933   27.9644 C   0  0  0  0  0  0  0  0  0  0  0  0
   -2.3870  -12.8440   19.2512 C   0  0  0  0  0  0  0  0  0  0  0  0
    0.5331   -7.6964   16.2751 C   0  0  0  0  0  0  0  0  0  0  0  0
   -0.6740  -10.8737   18.0482 C   0  0  0  0  0  0  0  0  0  0  0  0
    5.6751  -10.5870   29.7637 O   0  0  0  0  0  0  0  0  0  0  0  0
    1.7612   -5.6483   26.7172 C   0  0  0  0  0  0  0  0  0  0  0  0
    0.2221   -9.8326   17.4055 C   0  0  0  0  0  0  0  0  0  0  0  0
    4.3850   -9.0730   28.6745 C   0  0  0  0  0  0  0  0  0  0  0  0
  1  7  4  0
  1 22  4  0
  2 17  4  0
  2 20  4  0
  2 28  4  0
  3  6  1  0
  3 19  1  0
  4 19  1  0
  4 26  1  0
  5 17  4  0
  5 18  4  0
  6 20  1  0
  6 26  1  0
  7 24  4  0
  8 15  4  0
  8 24  4  0
  9 14  4  0
  9 21  4  0
 10 12  4  0
 10 27  4  0
 11 12  4  0
 11 23  4  0
 13 23  4  0
 13 27  4  0
 14 20  4  0
 15 22  4  0
 16 18  4  0
 16 25  2  0
 16 28  4  0
 21 28  4  0
 24 27  1  0
M  END
$$$$

 Created by Python create_sdf_string function

 28 31  0  0  0  0  0  0  0  0999 V2000
   -1.0054  -13.0622   19.1198 C   0  0  0  0  0  0  0  0  0  0  0  0
    3.1478   -8.5360   28.5161 C   0  0  0  0  0  0  0  0  0  0  0  0
    0.5798   -7.1906   27.9330 C   0  0  0  0  0  0  0  0  0  0  0  0
    0.3978   -5.1561   26.6955 C   0  0  0  0  0  0  0  0  0  0  0  0
    2.3063  -10.0533   30.0125 C   0  0  0  0  0  0  0  0  0  0  0  0
    1.8591   -6.8254   27.4685 N   0  0  0  0  0  0  0  0  0  0  0  0
   -0.2167  -12.1055   18.5568 C   0  0  0  0  0  0  0  0  0  0  0  0
   -2.0661  -10.6994   18.1916 C   0  0  0  0  0  0  0  0  0  0  0  0
    5.2703   -7.5691   27.1123 C   0  0  0  0  0  0  0  0  0  0  0  0
    1.6204   -9.9887   17.2935 C   0  0  0  0  0  0  0  0  0  0  0  0
    1.8931   -7.9265   16.2047 C   0  0  0  0  0  0  0  0  0  0  0  0
    2.4396   -9.0801   16.7132 C   0  0  0  0  0  0  0  0  0  0  0  0
   -0.2575   -8.6234   16.8582 C   0  0  0  0  0  0  0  0  0  0  0  0
    4.0614   -7.0367   27.0106 N   0  0  0  0  0  0  0  0  0  0  0  0
   -2.9133  -11.6279   18.7578 C   0  0  0  0  0  0  0  0  0  0  0  0
    4.5688  -10.1291   29.5758 C   0  0  0  0  0  0  0  0  0  0  0  0
    2.1008   -9.0410   29.1852 N   0  0  0  0  0  0  0  0  0  0  0  0
    3.4829  -10.5697   30.2091 N   0  0  0  0  0  0  0  0  0  0  0  0
   -0.3363   -6.1172   27.5628 C   0  0  0  0  0  0  0  0  0  0  0  0
    3.0331   -7.4400   27.6362 C   0  0  0  0  0  0  0  0  0  0  0  0
    5.4553   -8.5933   27.9644 C   0  0  0  0  0  0  0  0  0  0  0  0
   -2.3870  -12.8440   19.2512 C   0  0  0  0  0  0  0  0  0  0  0  0
    0.5331   -7.6964   16.2751 C   0  0  0  0  0  0  0  0  0  0  0  0
   -0.6740  -10.8737   18.0482 C   0  0  0  0  0  0  0  0  0  0  0  0
    5.6751  -10.5870   29.7637 O   0  0  0  0  0  0  0  0  0  0  0  0
    1.7612   -5.6483   26.7172 C   0  0  0  0  0  0  0  0  0  0  0  0
    0.2221   -9.8326   17.4055 C   0  0  0  0  0  0  0  0  0  0  0  0
    4.3850   -9.0730   28.6745 C   0  0  0  0  0  0  0  0  0  0  0  0
  1  7  4  0
  1 22  4  0
  2 17  4  0
  2 20  4  0
  2 28  4  0
  3  6  1  0
  3 19  1  0
  4 19  1  0
  4 26  1  0
  5 17  4  0
  5 18  4  0
  6 20  1  0
  6 26  1  0
  7 24  4  0
  8 15  4  0
  8 24  4  0
  9 14  4  0
  9 21  4  0
 10 12  4  0
 10 27  4  0
 11 12  4  0
 11 23  4  0
 13 23  4  0
 13 27  4  0
 14 20  4  0
 15 22  4  0
 16 18  4  0
 16 25  2  0
 16 28  4  0
 21 28  4  0
 24 27  1  0
M  END
$$$$

 Created by Python create_sdf_string function

 28 31  0  0  0  0  0  0  0  0999 V2000
   -1.0054  -13.0622   19.1198 C   0  0  0  0  0  0  0  0  0  0  0  0
    3.1478   -8.5360   28.5161 C   0  0  0  0  0  0  0  0  0  0  0  0
    0.5798   -7.1906   27.9330 C   0  0  0  0  0  0  0  0  0  0  0  0
    0.3978   -5.1561   26.6955 C   0  0  0  0  0  0  0  0  0  0  0  0
    2.3063  -10.0533   30.0125 C   0  0  0  0  0  0  0  0  0  0  0  0
    1.8591   -6.8254   27.4685 N   0  0  0  0  0  0  0  0  0  0  0  0
   -0.2167  -12.1055   18.5568 C   0  0  0  0  0  0  0  0  0  0  0  0
   -2.0661  -10.6994   18.1916 C   0  0  0  0  0  0  0  0  0  0  0  0
    5.2703   -7.5691   27.1123 C   0  0  0  0  0  0  0  0  0  0  0  0
    1.6204   -9.9887   17.2935 C   0  0  0  0  0  0  0  0  0  0  0  0
    1.8931   -7.9265   16.2047 C   0  0  0  0  0  0  0  0  0  0  0  0
    2.4396   -9.0801   16.7132 C   0  0  0  0  0  0  0  0  0  0  0  0
   -0.2575   -8.6234   16.8582 C   0  0  0  0  0  0  0  0  0  0  0  0
    4.0614   -7.0367   27.0106 N   0  0  0  0  0  0  0  0  0  0  0  0
   -2.9133  -11.6279   18.7578 C   0  0  0  0  0  0  0  0  0  0  0  0
    4.5688  -10.1291   29.5758 C   0  0  0  0  0  0  0  0  0  0  0  0
    2.1008   -9.0410   29.1852 N   0  0  0  0  0  0  0  0  0  0  0  0
    3.4829  -10.5697   30.2091 N   0  0  0  0  0  0  0  0  0  0  0  0
   -0.3363   -6.1172   27.5628 C   0  0  0  0  0  0  0  0  0  0  0  0
    3.0331   -7.4400   27.6362 C   0  0  0  0  0  0  0  0  0  0  0  0
    5.4553   -8.5933   27.9644 C   0  0  0  0  0  0  0  0  0  0  0  0
   -2.3870  -12.8440   19.2512 C   0  0  0  0  0  0  0  0  0  0  0  0
    0.5331   -7.6964   16.2751 C   0  0  0  0  0  0  0  0  0  0  0  0
   -0.6740  -10.8737   18.0482 C   0  0  0  0  0  0  0  0  0  0  0  0
    5.6751  -10.5870   29.7637 O   0  0  0  0  0  0  0  0  0  0  0  0
    1.7612   -5.6483   26.7172 C   0  0  0  0  0  0  0  0  0  0  0  0
    0.2221   -9.8326   17.4055 C   0  0  0  0  0  0  0  0  0  0  0  0
    4.3850   -9.0730   28.6745 C   0  0  0  0  0  0  0  0  0  0  0  0
  1  7  4  0
  1 22  4  0
  2 17  4  0
  2 20  4  0
  2 28  4  0
  3  6  1  0
  3 19  1  0
  4 19  1  0
  4 26  1  0
  5 17  4  0
  5 18  4  0
  6 20  1  0
  6 26  1  0
  7 24  4  0
  8 15  4  0
  8 24  4  0
  9 14  4  0
  9 21  4  0
 10 12  4  0
 10 27  4  0
 11 12  4  0
 11 23  4  0
 13 23  4  0
 13 27  4  0
 14 20  4  0
 15 22  4  0
 16 18  4  0
 16 25  2  0
 16 28  4  0
 21 28  4  0
 24 27  1  0
M  END
$$$$

 Created by Python create_sdf_string function

 28 31  0  0  0  0  0  0  0  0999 V2000
   -1.0054  -13.0622   19.1198 C   0  0  0  0  0  0  0  0  0  0  0  0
    3.1478   -8.5360   28.5161 C   0  0  0  0  0  0  0  0  0  0  0  0
    0.5798   -7.1906   27.9330 C   0  0  0  0  0  0  0  0  0  0  0  0
    0.3978   -5.1561   26.6955 C   0  0  0  0  0  0  0  0  0  0  0  0
    2.3063  -10.0533   30.0125 C   0  0  0  0  0  0  0  0  0  0  0  0
    1.8591   -6.8254   27.4685 N   0  0  0  0  0  0  0  0  0  0  0  0
   -0.2167  -12.1055   18.5568 C   0  0  0  0  0  0  0  0  0  0  0  0
   -2.0661  -10.6994   18.1916 C   0  0  0  0  0  0  0  0  0  0  0  0
    5.2703   -7.5691   27.1123 C   0  0  0  0  0  0  0  0  0  0  0  0
    1.6204   -9.9887   17.2935 C   0  0  0  0  0  0  0  0  0  0  0  0
    1.8931   -7.9265   16.2047 C   0  0  0  0  0  0  0  0  0  0  0  0
    2.4396   -9.0801   16.7132 C   0  0  0  0  0  0  0  0  0  0  0  0
   -0.2575   -8.6234   16.8582 C   0  0  0  0  0  0  0  0  0  0  0  0
    4.0614   -7.0367   27.0106 N   0  0  0  0  0  0  0  0  0  0  0  0
   -2.9133  -11.6279   18.7578 C   0  0  0  0  0  0  0  0  0  0  0  0
    4.5688  -10.1291   29.5758 C   0  0  0  0  0  0  0  0  0  0  0  0
    2.1008   -9.0410   29.1852 N   0  0  0  0  0  0  0  0  0  0  0  0
    3.4829  -10.5697   30.2091 N   0  0  0  0  0  0  0  0  0  0  0  0
   -0.3363   -6.1172   27.5628 C   0  0  0  0  0  0  0  0  0  0  0  0
    3.0331   -7.4400   27.6362 C   0  0  0  0  0  0  0  0  0  0  0  0
    5.4553   -8.5933   27.9644 C   0  0  0  0  0  0  0  0  0  0  0  0
   -2.3870  -12.8440   19.2512 C   0  0  0  0  0  0  0  0  0  0  0  0
    0.5331   -7.6964   16.2751 C   0  0  0  0  0  0  0  0  0  0  0  0
   -0.6740  -10.8737   18.0482 C   0  0  0  0  0  0  0  0  0  0  0  0
    5.6751  -10.5870   29.7637 O   0  0  0  0  0  0  0  0  0  0  0  0
    1.7612   -5.6483   26.7172 C   0  0  0  0  0  0  0  0  0  0  0  0
    0.2221   -9.8326   17.4055 C   0  0  0  0  0  0  0  0  0  0  0  0
    4.3850   -9.0730   28.6745 C   0  0  0  0  0  0  0  0  0  0  0  0
  1  7  4  0
  1 22  4  0
  2 17  4  0
  2 20  4  0
  2 28  4  0
  3  6  1  0
  3 19  1  0
  4 19  1  0
  4 26  1  0
  5 17  4  0
  5 18  4  0
  6 20  1  0
  6 26  1  0
  7 24  4  0
  8 15  4  0
  8 24  4  0
  9 14  4  0
  9 21  4  0
 10 12  4  0
 10 27  4  0
 11 12  4  0
 11 23  4  0
 13 23  4  0
 13 27  4  0
 14 20  4  0
 15 22  4  0
 16 18  4  0
 16 25  2  0
 16 28  4  0
 21 28  4  0
 24 27  1  0
M  END
$$$$

 Created by Python create_sdf_string function

 28 31  0  0  0  0  0  0  0  0999 V2000
   -1.0054  -13.0622   19.1198 C   0  0  0  0  0  0  0  0  0  0  0  0
    3.1478   -8.5360   28.5161 C   0  0  0  0  0  0  0  0  0  0  0  0
    0.5798   -7.1906   27.9330 C   0  0  0  0  0  0  0  0  0  0  0  0
    0.3978   -5.1561   26.6955 C   0  0  0  0  0  0  0  0  0  0  0  0
    2.3063  -10.0533   30.0125 C   0  0  0  0  0  0  0  0  0  0  0  0
    1.8591   -6.8254   27.4685 N   0  0  0  0  0  0  0  0  0  0  0  0
   -0.2167  -12.1055   18.5568 C   0  0  0  0  0  0  0  0  0  0  0  0
   -2.0661  -10.6994   18.1916 C   0  0  0  0  0  0  0  0  0  0  0  0
    5.2703   -7.5691   27.1123 C   0  0  0  0  0  0  0  0  0  0  0  0
    1.6204   -9.9887   17.2935 C   0  0  0  0  0  0  0  0  0  0  0  0
    1.8931   -7.9265   16.2047 C   0  0  0  0  0  0  0  0  0  0  0  0
    2.4396   -9.0801   16.7132 C   0  0  0  0  0  0  0  0  0  0  0  0
   -0.2575   -8.6234   16.8582 C   0  0  0  0  0  0  0  0  0  0  0  0
    4.0614   -7.0367   27.0106 N   0  0  0  0  0  0  0  0  0  0  0  0
   -2.9133  -11.6279   18.7578 C   0  0  0  0  0  0  0  0  0  0  0  0
    4.5688  -10.1291   29.5758 C   0  0  0  0  0  0  0  0  0  0  0  0
    2.1008   -9.0410   29.1852 N   0  0  0  0  0  0  0  0  0  0  0  0
    3.4829  -10.5697   30.2091 N   0  0  0  0  0  0  0  0  0  0  0  0
   -0.3363   -6.1172   27.5628 C   0  0  0  0  0  0  0  0  0  0  0  0
    3.0331   -7.4400   27.6362 C   0  0  0  0  0  0  0  0  0  0  0  0
    5.4553   -8.5933   27.9644 C   0  0  0  0  0  0  0  0  0  0  0  0
   -2.3870  -12.8440   19.2512 C   0  0  0  0  0  0  0  0  0  0  0  0
    0.5331   -7.6964   16.2751 C   0  0  0  0  0  0  0  0  0  0  0  0
   -0.6740  -10.8737   18.0482 C   0  0  0  0  0  0  0  0  0  0  0  0
    5.6751  -10.5870   29.7637 O   0  0  0  0  0  0  0  0  0  0  0  0
    1.7612   -5.6483   26.7172 C   0  0  0  0  0  0  0  0  0  0  0  0
    0.2221   -9.8326   17.4055 C   0  0  0  0  0  0  0  0  0  0  0  0
    4.3850   -9.0730   28.6745 C   0  0  0  0  0  0  0  0  0  0  0  0
  1  7  4  0
  1 22  4  0
  2 17  4  0
  2 20  4  0
  2 28  4  0
  3  6  1  0
  3 19  1  0
  4 19  1  0
  4 26  1  0
  5 17  4  0
  5 18  4  0
  6 20  1  0
  6 26  1  0
  7 24  4  0
  8 15  4  0
  8 24  4  0
  9 14  4  0
  9 21  4  0
 10 12  4  0
 10 27  4  0
 11 12  4  0
 11 23  4  0
 13 23  4  0
 13 27  4  0
 14 20  4  0
 15 22  4  0
 16 18  4  0
 16 25  2  0
 16 28  4  0
 21 28  4  0
 24 27  1  0
M  END
$$$$

 Created by Python create_sdf_string function

 28 31  0  0  0  0  0  0  0  0999 V2000
   -1.0054  -13.0622   19.1198 C   0  0  0  0  0  0  0  0  0  0  0  0
    3.1478   -8.5360   28.5161 C   0  0  0  0  0  0  0  0  0  0  0  0
    0.5798   -7.1906   27.9330 C   0  0  0  0  0  0  0  0  0  0  0  0
    0.3978   -5.1561   26.6955 C   0  0  0  0  0  0  0  0  0  0  0  0
    2.3063  -10.0533   30.0125 C   0  0  0  0  0  0  0  0  0  0  0  0
    1.8591   -6.8254   27.4685 N   0  0  0  0  0  0  0  0  0  0  0  0
   -0.2167  -12.1055   18.5568 C   0  0  0  0  0  0  0  0  0  0  0  0
   -2.0661  -10.6994   18.1916 C   0  0  0  0  0  0  0  0  0  0  0  0
    5.2703   -7.5691   27.1123 C   0  0  0  0  0  0  0  0  0  0  0  0
    1.6204   -9.9887   17.2935 C   0  0  0  0  0  0  0  0  0  0  0  0
    1.8931   -7.9265   16.2047 C   0  0  0  0  0  0  0  0  0  0  0  0
    2.4396   -9.0801   16.7132 C   0  0  0  0  0  0  0  0  0  0  0  0
   -0.2575   -8.6234   16.8582 C   0  0  0  0  0  0  0  0  0  0  0  0
    4.0614   -7.0367   27.0106 N   0  0  0  0  0  0  0  0  0  0  0  0
   -2.9133  -11.6279   18.7578 C   0  0  0  0  0  0  0  0  0  0  0  0
    4.5688  -10.1291   29.5758 C   0  0  0  0  0  0  0  0  0  0  0  0
    2.1008   -9.0410   29.1852 N   0  0  0  0  0  0  0  0  0  0  0  0
    3.4829  -10.5697   30.2091 N   0  0  0  0  0  0  0  0  0  0  0  0
   -0.3363   -6.1172   27.5628 C   0  0  0  0  0  0  0  0  0  0  0  0
    3.0331   -7.4400   27.6362 C   0  0  0  0  0  0  0  0  0  0  0  0
    5.4553   -8.5933   27.9644 C   0  0  0  0  0  0  0  0  0  0  0  0
   -2.3870  -12.8440   19.2512 C   0  0  0  0  0  0  0  0  0  0  0  0
    0.5331   -7.6964   16.2751 C   0  0  0  0  0  0  0  0  0  0  0  0
   -0.6740  -10.8737   18.0482 C   0  0  0  0  0  0  0  0  0  0  0  0
    5.6751  -10.5870   29.7637 O   0  0  0  0  0  0  0  0  0  0  0  0
    1.7612   -5.6483   26.7172 C   0  0  0  0  0  0  0  0  0  0  0  0
    0.2221   -9.8326   17.4055 C   0  0  0  0  0  0  0  0  0  0  0  0
    4.3850   -9.0730   28.6745 C   0  0  0  0  0  0  0  0  0  0  0  0
  1  7  4  0
  1 22  4  0
  2 17  4  0
  2 20  4  0
  2 28  4  0
  3  6  1  0
  3 19  1  0
  4 19  1  0
  4 26  1  0
  5 17  4  0
  5 18  4  0
  6 20  1  0
  6 26  1  0
  7 24  4  0
  8 15  4  0
  8 24  4  0
  9 14  4  0
  9 21  4  0
 10 12  4  0
 10 27  4  0
 11 12  4  0
 11 23  4  0
 13 23  4  0
 13 27  4  0
 14 20  4  0
 15 22  4  0
 16 18  4  0
 16 25  2  0
 16 28  4  0
 21 28  4  0
 24 27  1  0
M  END
$$$$

 Created by Python create_sdf_string function

 28 31  0  0  0  0  0  0  0  0999 V2000
   -1.0054  -13.0622   19.1198 C   0  0  0  0  0  0  0  0  0  0  0  0
    3.1478   -8.5360   28.5161 C   0  0  0  0  0  0  0  0  0  0  0  0
    0.5798   -7.1906   27.9330 C   0  0  0  0  0  0  0  0  0  0  0  0
    0.3978   -5.1561   26.6955 C   0  0  0  0  0  0  0  0  0  0  0  0
    2.3063  -10.0533   30.0125 C   0  0  0  0  0  0  0  0  0  0  0  0
    1.8591   -6.8254   27.4685 N   0  0  0  0  0  0  0  0  0  0  0  0
   -0.2167  -12.1055   18.5568 C   0  0  0  0  0  0  0  0  0  0  0  0
   -2.0661  -10.6994   18.1916 C   0  0  0  0  0  0  0  0  0  0  0  0
    5.2703   -7.5691   27.1123 C   0  0  0  0  0  0  0  0  0  0  0  0
    1.6204   -9.9887   17.2935 C   0  0  0  0  0  0  0  0  0  0  0  0
    1.8931   -7.9265   16.2047 C   0  0  0  0  0  0  0  0  0  0  0  0
    2.4396   -9.0801   16.7132 C   0  0  0  0  0  0  0  0  0  0  0  0
   -0.2575   -8.6234   16.8582 C   0  0  0  0  0  0  0  0  0  0  0  0
    4.0614   -7.0367   27.0106 N   0  0  0  0  0  0  0  0  0  0  0  0
   -2.9133  -11.6279   18.7578 C   0  0  0  0  0  0  0  0  0  0  0  0
    4.5688  -10.1291   29.5758 C   0  0  0  0  0  0  0  0  0  0  0  0
    2.1008   -9.0410   29.1852 N   0  0  0  0  0  0  0  0  0  0  0  0
    3.4829  -10.5697   30.2091 N   0  0  0  0  0  0  0  0  0  0  0  0
   -0.3363   -6.1172   27.5628 C   0  0  0  0  0  0  0  0  0  0  0  0
    3.0331   -7.4400   27.6362 C   0  0  0  0  0  0  0  0  0  0  0  0
    5.4553   -8.5933   27.9644 C   0  0  0  0  0  0  0  0  0  0  0  0
   -2.3870  -12.8440   19.2512 C   0  0  0  0  0  0  0  0  0  0  0  0
    0.5331   -7.6964   16.2751 C   0  0  0  0  0  0  0  0  0  0  0  0
   -0.6740  -10.8737   18.0482 C   0  0  0  0  0  0  0  0  0  0  0  0
    5.6751  -10.5870   29.7637 O   0  0  0  0  0  0  0  0  0  0  0  0
    1.7612   -5.6483   26.7172 C   0  0  0  0  0  0  0  0  0  0  0  0
    0.2221   -9.8326   17.4055 C   0  0  0  0  0  0  0  0  0  0  0  0
    4.3850   -9.0730   28.6745 C   0  0  0  0  0  0  0  0  0  0  0  0
  1  7  4  0
  1 22  4  0
  2 17  4  0
  2 20  4  0
  2 28  4  0
  3  6  1  0
  3 19  1  0
  4 19  1  0
  4 26  1  0
  5 17  4  0
  5 18  4  0
  6 20  1  0
  6 26  1  0
  7 24  4  0
  8 15  4  0
  8 24  4  0
  9 14  4  0
  9 21  4  0
 10 12  4  0
 10 27  4  0
 11 12  4  0
 11 23  4  0
 13 23  4  0
 13 27  4  0
 14 20  4  0
 15 22  4  0
 16 18  4  0
 16 25  2  0
 16 28  4  0
 21 28  4  0
 24 27  1  0
M  END
$$$$

 Created by Python create_sdf_string function

 28 31  0  0  0  0  0  0  0  0999 V2000
   -1.0054  -13.0622   19.1198 C   0  0  0  0  0  0  0  0  0  0  0  0
    3.1478   -8.5360   28.5161 C   0  0  0  0  0  0  0  0  0  0  0  0
    0.5798   -7.1906   27.9330 C   0  0  0  0  0  0  0  0  0  0  0  0
    0.3978   -5.1561   26.6955 C   0  0  0  0  0  0  0  0  0  0  0  0
    2.3063  -10.0533   30.0125 C   0  0  0  0  0  0  0  0  0  0  0  0
    1.8591   -6.8254   27.4685 N   0  0  0  0  0  0  0  0  0  0  0  0
   -0.2167  -12.1055   18.5568 C   0  0  0  0  0  0  0  0  0  0  0  0
   -2.0661  -10.6994   18.1916 C   0  0  0  0  0  0  0  0  0  0  0  0
    5.2703   -7.5691   27.1123 C   0  0  0  0  0  0  0  0  0  0  0  0
    1.6204   -9.9887   17.2935 C   0  0  0  0  0  0  0  0  0  0  0  0
    1.8931   -7.9265   16.2047 C   0  0  0  0  0  0  0  0  0  0  0  0
    2.4396   -9.0801   16.7132 C   0  0  0  0  0  0  0  0  0  0  0  0
   -0.2575   -8.6234   16.8582 C   0  0  0  0  0  0  0  0  0  0  0  0
    4.0614   -7.0367   27.0106 N   0  0  0  0  0  0  0  0  0  0  0  0
   -2.9133  -11.6279   18.7578 C   0  0  0  0  0  0  0  0  0  0  0  0
    4.5688  -10.1291   29.5758 C   0  0  0  0  0  0  0  0  0  0  0  0
    2.1008   -9.0410   29.1852 N   0  0  0  0  0  0  0  0  0  0  0  0
    3.4829  -10.5697   30.2091 N   0  0  0  0  0  0  0  0  0  0  0  0
   -0.3363   -6.1172   27.5628 C   0  0  0  0  0  0  0  0  0  0  0  0
    3.0331   -7.4400   27.6362 C   0  0  0  0  0  0  0  0  0  0  0  0
    5.4553   -8.5933   27.9644 C   0  0  0  0  0  0  0  0  0  0  0  0
   -2.3870  -12.8440   19.2512 C   0  0  0  0  0  0  0  0  0  0  0  0
    0.5331   -7.6964   16.2751 C   0  0  0  0  0  0  0  0  0  0  0  0
   -0.6740  -10.8737   18.0482 C   0  0  0  0  0  0  0  0  0  0  0  0
    5.6751  -10.5870   29.7637 O   0  0  0  0  0  0  0  0  0  0  0  0
    1.7612   -5.6483   26.7172 C   0  0  0  0  0  0  0  0  0  0  0  0
    0.2221   -9.8326   17.4055 C   0  0  0  0  0  0  0  0  0  0  0  0
    4.3850   -9.0730   28.6745 C   0  0  0  0  0  0  0  0  0  0  0  0
  1  7  4  0
  1 22  4  0
  2 17  4  0
  2 20  4  0
  2 28  4  0
  3  6  1  0
  3 19  1  0
  4 19  1  0
  4 26  1  0
  5 17  4  0
  5 18  4  0
  6 20  1  0
  6 26  1  0
  7 24  4  0
  8 15  4  0
  8 24  4  0
  9 14  4  0
  9 21  4  0
 10 12  4  0
 10 27  4  0
 11 12  4  0
 11 23  4  0
 13 23  4  0
 13 27  4  0
 14 20  4  0
 15 22  4  0
 16 18  4  0
 16 25  2  0
 16 28  4  0
 21 28  4  0
 24 27  1  0
M  END
$$$$

 Created by Python create_sdf_string function

 28 31  0  0  0  0  0  0  0  0999 V2000
   -1.0054  -13.0622   19.1198 C   0  0  0  0  0  0  0  0  0  0  0  0
    3.1478   -8.5360   28.5161 C   0  0  0  0  0  0  0  0  0  0  0  0
    0.5798   -7.1906   27.9330 C   0  0  0  0  0  0  0  0  0  0  0  0
    0.3978   -5.1561   26.6955 C   0  0  0  0  0  0  0  0  0  0  0  0
    2.3063  -10.0533   30.0125 C   0  0  0  0  0  0  0  0  0  0  0  0
    1.8591   -6.8254   27.4685 N   0  0  0  0  0  0  0  0  0  0  0  0
   -0.2167  -12.1055   18.5568 C   0  0  0  0  0  0  0  0  0  0  0  0
   -2.0661  -10.6994   18.1916 C   0  0  0  0  0  0  0  0  0  0  0  0
    5.2703   -7.5691   27.1123 C   0  0  0  0  0  0  0  0  0  0  0  0
    1.6204   -9.9887   17.2935 C   0  0  0  0  0  0  0  0  0  0  0  0
    1.8931   -7.9265   16.2047 C   0  0  0  0  0  0  0  0  0  0  0  0
    2.4396   -9.0801   16.7132 C   0  0  0  0  0  0  0  0  0  0  0  0
   -0.2575   -8.6234   16.8582 C   0  0  0  0  0  0  0  0  0  0  0  0
    4.0614   -7.0367   27.0106 N   0  0  0  0  0  0  0  0  0  0  0  0
   -2.9133  -11.6279   18.7578 C   0  0  0  0  0  0  0  0  0  0  0  0
    4.5688  -10.1291   29.5758 C   0  0  0  0  0  0  0  0  0  0  0  0
    2.1008   -9.0410   29.1852 N   0  0  0  0  0  0  0  0  0  0  0  0
    3.4829  -10.5697   30.2091 N   0  0  0  0  0  0  0  0  0  0  0  0
   -0.3363   -6.1172   27.5628 C   0  0  0  0  0  0  0  0  0  0  0  0
    3.0331   -7.4400   27.6362 C   0  0  0  0  0  0  0  0  0  0  0  0
    5.4553   -8.5933   27.9644 C   0  0  0  0  0  0  0  0  0  0  0  0
   -2.3870  -12.8440   19.2512 C   0  0  0  0  0  0  0  0  0  0  0  0
    0.5331   -7.6964   16.2751 C   0  0  0  0  0  0  0  0  0  0  0  0
   -0.6740  -10.8737   18.0482 C   0  0  0  0  0  0  0  0  0  0  0  0
    5.6751  -10.5870   29.7637 O   0  0  0  0  0  0  0  0  0  0  0  0
    1.7612   -5.6483   26.7172 C   0  0  0  0  0  0  0  0  0  0  0  0
    0.2221   -9.8326   17.4055 C   0  0  0  0  0  0  0  0  0  0  0  0
    4.3850   -9.0730   28.6745 C   0  0  0  0  0  0  0  0  0  0  0  0
  1  7  4  0
  1 22  4  0
  2 17  4  0
  2 20  4  0
  2 28  4  0
  3  6  1  0
  3 19  1  0
  4 19  1  0
  4 26  1  0
  5 17  4  0
  5 18  4  0
  6 20  1  0
  6 26  1  0
  7 24  4  0
  8 15  4  0
  8 24  4  0
  9 14  4  0
  9 21  4  0
 10 12  4  0
 10 27  4  0
 11 12  4  0
 11 23  4  0
 13 23  4  0
 13 27  4  0
 14 20  4  0
 15 22  4  0
 16 18  4  0
 16 25  2  0
 16 28  4  0
 21 28  4  0
 24 27  1  0
M  END
$$$$

 Created by Python create_sdf_string function

 28 31  0  0  0  0  0  0  0  0999 V2000
   -1.0054  -13.0622   19.1198 C   0  0  0  0  0  0  0  0  0  0  0  0
    3.1478   -8.5360   28.5161 C   0  0  0  0  0  0  0  0  0  0  0  0
    0.5798   -7.1906   27.9330 C   0  0  0  0  0  0  0  0  0  0  0  0
    0.3978   -5.1561   26.6955 C   0  0  0  0  0  0  0  0  0  0  0  0
    2.3063  -10.0533   30.0125 C   0  0  0  0  0  0  0  0  0  0  0  0
    1.8591   -6.8254   27.4685 N   0  0  0  0  0  0  0  0  0  0  0  0
   -0.2167  -12.1055   18.5568 C   0  0  0  0  0  0  0  0  0  0  0  0
   -2.0661  -10.6994   18.1916 C   0  0  0  0  0  0  0  0  0  0  0  0
    5.2703   -7.5691   27.1123 C   0  0  0  0  0  0  0  0  0  0  0  0
    1.6204   -9.9887   17.2935 C   0  0  0  0  0  0  0  0  0  0  0  0
    1.8931   -7.9265   16.2047 C   0  0  0  0  0  0  0  0  0  0  0  0
    2.4396   -9.0801   16.7132 C   0  0  0  0  0  0  0  0  0  0  0  0
   -0.2575   -8.6234   16.8582 C   0  0  0  0  0  0  0  0  0  0  0  0
    4.0614   -7.0367   27.0106 N   0  0  0  0  0  0  0  0  0  0  0  0
   -2.9133  -11.6279   18.7578 C   0  0  0  0  0  0  0  0  0  0  0  0
    4.5688  -10.1291   29.5758 C   0  0  0  0  0  0  0  0  0  0  0  0
    2.1008   -9.0410   29.1852 N   0  0  0  0  0  0  0  0  0  0  0  0
    3.4829  -10.5697   30.2091 N   0  0  0  0  0  0  0  0  0  0  0  0
   -0.3363   -6.1172   27.5628 C   0  0  0  0  0  0  0  0  0  0  0  0
    3.0331   -7.4400   27.6362 C   0  0  0  0  0  0  0  0  0  0  0  0
    5.4553   -8.5933   27.9644 C   0  0  0  0  0  0  0  0  0  0  0  0
   -2.3870  -12.8440   19.2512 C   0  0  0  0  0  0  0  0  0  0  0  0
    0.5331   -7.6964   16.2751 C   0  0  0  0  0  0  0  0  0  0  0  0
   -0.6740  -10.8737   18.0482 C   0  0  0  0  0  0  0  0  0  0  0  0
    5.6751  -10.5870   29.7637 O   0  0  0  0  0  0  0  0  0  0  0  0
    1.7612   -5.6483   26.7172 C   0  0  0  0  0  0  0  0  0  0  0  0
    0.2221   -9.8326   17.4055 C   0  0  0  0  0  0  0  0  0  0  0  0
    4.3850   -9.0730   28.6745 C   0  0  0  0  0  0  0  0  0  0  0  0
  1  7  4  0
  1 22  4  0
  2 17  4  0
  2 20  4  0
  2 28  4  0
  3  6  1  0
  3 19  1  0
  4 19  1  0
  4 26  1  0
  5 17  4  0
  5 18  4  0
  6 20  1  0
  6 26  1  0
  7 24  4  0
  8 15  4  0
  8 24  4  0
  9 14  4  0
  9 21  4  0
 10 12  4  0
 10 27  4  0
 11 12  4  0
 11 23  4  0
 13 23  4  0
 13 27  4  0
 14 20  4  0
 15 22  4  0
 16 18  4  0
 16 25  2  0
 16 28  4  0
 21 28  4  0
 24 27  1  0
M  END
$$$$

 Created by Python create_sdf_string function

 28 31  0  0  0  0  0  0  0  0999 V2000
   -1.0054  -13.0622   19.1198 C   0  0  0  0  0  0  0  0  0  0  0  0
    3.1478   -8.5360   28.5161 C   0  0  0  0  0  0  0  0  0  0  0  0
    0.5798   -7.1906   27.9330 C   0  0  0  0  0  0  0  0  0  0  0  0
    0.3978   -5.1561   26.6955 C   0  0  0  0  0  0  0  0  0  0  0  0
    2.3063  -10.0533   30.0125 C   0  0  0  0  0  0  0  0  0  0  0  0
    1.8591   -6.8254   27.4685 N   0  0  0  0  0  0  0  0  0  0  0  0
   -0.2167  -12.1055   18.5568 C   0  0  0  0  0  0  0  0  0  0  0  0
   -2.0661  -10.6994   18.1916 C   0  0  0  0  0  0  0  0  0  0  0  0
    5.2703   -7.5691   27.1123 C   0  0  0  0  0  0  0  0  0  0  0  0
    1.6204   -9.9887   17.2935 C   0  0  0  0  0  0  0  0  0  0  0  0
    1.8931   -7.9265   16.2047 C   0  0  0  0  0  0  0  0  0  0  0  0
    2.4396   -9.0801   16.7132 C   0  0  0  0  0  0  0  0  0  0  0  0
   -0.2575   -8.6234   16.8582 C   0  0  0  0  0  0  0  0  0  0  0  0
    4.0614   -7.0367   27.0106 N   0  0  0  0  0  0  0  0  0  0  0  0
   -2.9133  -11.6279   18.7578 C   0  0  0  0  0  0  0  0  0  0  0  0
    4.5688  -10.1291   29.5758 C   0  0  0  0  0  0  0  0  0  0  0  0
    2.1008   -9.0410   29.1852 N   0  0  0  0  0  0  0  0  0  0  0  0
    3.4829  -10.5697   30.2091 N   0  0  0  0  0  0  0  0  0  0  0  0
   -0.3363   -6.1172   27.5628 C   0  0  0  0  0  0  0  0  0  0  0  0
    3.0331   -7.4400   27.6362 C   0  0  0  0  0  0  0  0  0  0  0  0
    5.4553   -8.5933   27.9644 C   0  0  0  0  0  0  0  0  0  0  0  0
   -2.3870  -12.8440   19.2512 C   0  0  0  0  0  0  0  0  0  0  0  0
    0.5331   -7.6964   16.2751 C   0  0  0  0  0  0  0  0  0  0  0  0
   -0.6740  -10.8737   18.0482 C   0  0  0  0  0  0  0  0  0  0  0  0
    5.6751  -10.5870   29.7637 O   0  0  0  0  0  0  0  0  0  0  0  0
    1.7612   -5.6483   26.7172 C   0  0  0  0  0  0  0  0  0  0  0  0
    0.2221   -9.8326   17.4055 C   0  0  0  0  0  0  0  0  0  0  0  0
    4.3850   -9.0730   28.6745 C   0  0  0  0  0  0  0  0  0  0  0  0
  1  7  4  0
  1 22  4  0
  2 17  4  0
  2 20  4  0
  2 28  4  0
  3  6  1  0
  3 19  1  0
  4 19  1  0
  4 26  1  0
  5 17  4  0
  5 18  4  0
  6 20  1  0
  6 26  1  0
  7 24  4  0
  8 15  4  0
  8 24  4  0
  9 14  4  0
  9 21  4  0
 10 12  4  0
 10 27  4  0
 11 12  4  0
 11 23  4  0
 13 23  4  0
 13 27  4  0
 14 20  4  0
 15 22  4  0
 16 18  4  0
 16 25  2  0
 16 28  4  0
 21 28  4  0
 24 27  1  0
M  END
$$$$

 Created by Python create_sdf_string function

 28 31  0  0  0  0  0  0  0  0999 V2000
   -1.0054  -13.0622   19.1198 C   0  0  0  0  0  0  0  0  0  0  0  0
    3.1478   -8.5360   28.5161 C   0  0  0  0  0  0  0  0  0  0  0  0
    0.5798   -7.1906   27.9330 C   0  0  0  0  0  0  0  0  0  0  0  0
    0.3978   -5.1561   26.6955 C   0  0  0  0  0  0  0  0  0  0  0  0
    2.3063  -10.0533   30.0125 C   0  0  0  0  0  0  0  0  0  0  0  0
    1.8591   -6.8254   27.4685 N   0  0  0  0  0  0  0  0  0  0  0  0
   -0.2167  -12.1055   18.5568 C   0  0  0  0  0  0  0  0  0  0  0  0
   -2.0661  -10.6994   18.1916 C   0  0  0  0  0  0  0  0  0  0  0  0
    5.2703   -7.5691   27.1123 C   0  0  0  0  0  0  0  0  0  0  0  0
    1.6204   -9.9887   17.2935 C   0  0  0  0  0  0  0  0  0  0  0  0
    1.8931   -7.9265   16.2047 C   0  0  0  0  0  0  0  0  0  0  0  0
    2.4396   -9.0801   16.7132 C   0  0  0  0  0  0  0  0  0  0  0  0
   -0.2575   -8.6234   16.8582 C   0  0  0  0  0  0  0  0  0  0  0  0
    4.0614   -7.0367   27.0106 N   0  0  0  0  0  0  0  0  0  0  0  0
   -2.9133  -11.6279   18.7578 C   0  0  0  0  0  0  0  0  0  0  0  0
    4.5688  -10.1291   29.5758 C   0  0  0  0  0  0  0  0  0  0  0  0
    2.1008   -9.0410   29.1852 N   0  0  0  0  0  0  0  0  0  0  0  0
    3.4829  -10.5697   30.2091 N   0  0  0  0  0  0  0  0  0  0  0  0
   -0.3363   -6.1172   27.5628 C   0  0  0  0  0  0  0  0  0  0  0  0
    3.0331   -7.4400   27.6362 C   0  0  0  0  0  0  0  0  0  0  0  0
    5.4553   -8.5933   27.9644 C   0  0  0  0  0  0  0  0  0  0  0  0
   -2.3870  -12.8440   19.2512 C   0  0  0  0  0  0  0  0  0  0  0  0
    0.5331   -7.6964   16.2751 C   0  0  0  0  0  0  0  0  0  0  0  0
   -0.6740  -10.8737   18.0482 C   0  0  0  0  0  0  0  0  0  0  0  0
    5.6751  -10.5870   29.7637 O   0  0  0  0  0  0  0  0  0  0  0  0
    1.7612   -5.6483   26.7172 C   0  0  0  0  0  0  0  0  0  0  0  0
    0.2221   -9.8326   17.4055 C   0  0  0  0  0  0  0  0  0  0  0  0
    4.3850   -9.0730   28.6745 C   0  0  0  0  0  0  0  0  0  0  0  0
  1  7  4  0
  1 22  4  0
  2 17  4  0
  2 20  4  0
  2 28  4  0
  3  6  1  0
  3 19  1  0
  4 19  1  0
  4 26  1  0
  5 17  4  0
  5 18  4  0
  6 20  1  0
  6 26  1  0
  7 24  4  0
  8 15  4  0
  8 24  4  0
  9 14  4  0
  9 21  4  0
 10 12  4  0
 10 27  4  0
 11 12  4  0
 11 23  4  0
 13 23  4  0
 13 27  4  0
 14 20  4  0
 15 22  4  0
 16 18  4  0
 16 25  2  0
 16 28  4  0
 21 28  4  0
 24 27  1  0
M  END
$$$$

 Created by Python create_sdf_string function

 28 31  0  0  0  0  0  0  0  0999 V2000
   -1.0054  -13.0622   19.1198 C   0  0  0  0  0  0  0  0  0  0  0  0
    3.1478   -8.5360   28.5161 C   0  0  0  0  0  0  0  0  0  0  0  0
    0.5798   -7.1906   27.9330 C   0  0  0  0  0  0  0  0  0  0  0  0
    0.3978   -5.1561   26.6955 C   0  0  0  0  0  0  0  0  0  0  0  0
    2.3063  -10.0533   30.0125 C   0  0  0  0  0  0  0  0  0  0  0  0
    1.8591   -6.8254   27.4685 N   0  0  0  0  0  0  0  0  0  0  0  0
   -0.2167  -12.1055   18.5568 C   0  0  0  0  0  0  0  0  0  0  0  0
   -2.0661  -10.6994   18.1916 C   0  0  0  0  0  0  0  0  0  0  0  0
    5.2703   -7.5691   27.1123 C   0  0  0  0  0  0  0  0  0  0  0  0
    1.6204   -9.9887   17.2935 C   0  0  0  0  0  0  0  0  0  0  0  0
    1.8931   -7.9265   16.2047 C   0  0  0  0  0  0  0  0  0  0  0  0
    2.4396   -9.0801   16.7132 C   0  0  0  0  0  0  0  0  0  0  0  0
   -0.2575   -8.6234   16.8582 C   0  0  0  0  0  0  0  0  0  0  0  0
    4.0614   -7.0367   27.0106 N   0  0  0  0  0  0  0  0  0  0  0  0
   -2.9133  -11.6279   18.7578 C   0  0  0  0  0  0  0  0  0  0  0  0
    4.5688  -10.1291   29.5758 C   0  0  0  0  0  0  0  0  0  0  0  0
    2.1008   -9.0410   29.1852 N   0  0  0  0  0  0  0  0  0  0  0  0
    3.4829  -10.5697   30.2091 N   0  0  0  0  0  0  0  0  0  0  0  0
   -0.3363   -6.1172   27.5628 C   0  0  0  0  0  0  0  0  0  0  0  0
    3.0331   -7.4400   27.6362 C   0  0  0  0  0  0  0  0  0  0  0  0
    5.4553   -8.5933   27.9644 C   0  0  0  0  0  0  0  0  0  0  0  0
   -2.3870  -12.8440   19.2512 C   0  0  0  0  0  0  0  0  0  0  0  0
    0.5331   -7.6964   16.2751 C   0  0  0  0  0  0  0  0  0  0  0  0
   -0.6740  -10.8737   18.0482 C   0  0  0  0  0  0  0  0  0  0  0  0
    5.6751  -10.5870   29.7637 O   0  0  0  0  0  0  0  0  0  0  0  0
    1.7612   -5.6483   26.7172 C   0  0  0  0  0  0  0  0  0  0  0  0
    0.2221   -9.8326   17.4055 C   0  0  0  0  0  0  0  0  0  0  0  0
    4.3850   -9.0730   28.6745 C   0  0  0  0  0  0  0  0  0  0  0  0
  1  7  4  0
  1 22  4  0
  2 17  4  0
  2 20  4  0
  2 28  4  0
  3  6  1  0
  3 19  1  0
  4 19  1  0
  4 26  1  0
  5 17  4  0
  5 18  4  0
  6 20  1  0
  6 26  1  0
  7 24  4  0
  8 15  4  0
  8 24  4  0
  9 14  4  0
  9 21  4  0
 10 12  4  0
 10 27  4  0
 11 12  4  0
 11 23  4  0
 13 23  4  0
 13 27  4  0
 14 20  4  0
 15 22  4  0
 16 18  4  0
 16 25  2  0
 16 28  4  0
 21 28  4  0
 24 27  1  0
M  END
$$$$

 Created by Python create_sdf_string function

 28 31  0  0  0  0  0  0  0  0999 V2000
   -1.0054  -13.0622   19.1198 C   0  0  0  0  0  0  0  0  0  0  0  0
    3.1478   -8.5360   28.5161 C   0  0  0  0  0  0  0  0  0  0  0  0
    0.5798   -7.1906   27.9330 C   0  0  0  0  0  0  0  0  0  0  0  0
    0.3978   -5.1561   26.6955 C   0  0  0  0  0  0  0  0  0  0  0  0
    2.3063  -10.0533   30.0125 C   0  0  0  0  0  0  0  0  0  0  0  0
    1.8591   -6.8254   27.4685 N   0  0  0  0  0  0  0  0  0  0  0  0
   -0.2167  -12.1055   18.5568 C   0  0  0  0  0  0  0  0  0  0  0  0
   -2.0661  -10.6994   18.1916 C   0  0  0  0  0  0  0  0  0  0  0  0
    5.2703   -7.5691   27.1123 C   0  0  0  0  0  0  0  0  0  0  0  0
    1.6204   -9.9887   17.2935 C   0  0  0  0  0  0  0  0  0  0  0  0
    1.8931   -7.9265   16.2047 C   0  0  0  0  0  0  0  0  0  0  0  0
    2.4396   -9.0801   16.7132 C   0  0  0  0  0  0  0  0  0  0  0  0
   -0.2575   -8.6234   16.8582 C   0  0  0  0  0  0  0  0  0  0  0  0
    4.0614   -7.0367   27.0106 N   0  0  0  0  0  0  0  0  0  0  0  0
   -2.9133  -11.6279   18.7578 C   0  0  0  0  0  0  0  0  0  0  0  0
    4.5688  -10.1291   29.5758 C   0  0  0  0  0  0  0  0  0  0  0  0
    2.1008   -9.0410   29.1852 N   0  0  0  0  0  0  0  0  0  0  0  0
    3.4829  -10.5697   30.2091 N   0  0  0  0  0  0  0  0  0  0  0  0
   -0.3363   -6.1172   27.5628 C   0  0  0  0  0  0  0  0  0  0  0  0
    3.0331   -7.4400   27.6362 C   0  0  0  0  0  0  0  0  0  0  0  0
    5.4553   -8.5933   27.9644 C   0  0  0  0  0  0  0  0  0  0  0  0
   -2.3870  -12.8440   19.2512 C   0  0  0  0  0  0  0  0  0  0  0  0
    0.5331   -7.6964   16.2751 C   0  0  0  0  0  0  0  0  0  0  0  0
   -0.6740  -10.8737   18.0482 C   0  0  0  0  0  0  0  0  0  0  0  0
    5.6751  -10.5870   29.7637 O   0  0  0  0  0  0  0  0  0  0  0  0
    1.7612   -5.6483   26.7172 C   0  0  0  0  0  0  0  0  0  0  0  0
    0.2221   -9.8326   17.4055 C   0  0  0  0  0  0  0  0  0  0  0  0
    4.3850   -9.0730   28.6745 C   0  0  0  0  0  0  0  0  0  0  0  0
  1  7  4  0
  1 22  4  0
  2 17  4  0
  2 20  4  0
  2 28  4  0
  3  6  1  0
  3 19  1  0
  4 19  1  0
  4 26  1  0
  5 17  4  0
  5 18  4  0
  6 20  1  0
  6 26  1  0
  7 24  4  0
  8 15  4  0
  8 24  4  0
  9 14  4  0
  9 21  4  0
 10 12  4  0
 10 27  4  0
 11 12  4  0
 11 23  4  0
 13 23  4  0
 13 27  4  0
 14 20  4  0
 15 22  4  0
 16 18  4  0
 16 25  2  0
 16 28  4  0
 21 28  4  0
 24 27  1  0
M  END
$$$$

 Created by Python create_sdf_string function

 28 31  0  0  0  0  0  0  0  0999 V2000
   -1.0054  -13.0622   19.1198 C   0  0  0  0  0  0  0  0  0  0  0  0
    3.1478   -8.5360   28.5161 C   0  0  0  0  0  0  0  0  0  0  0  0
    0.5798   -7.1906   27.9330 C   0  0  0  0  0  0  0  0  0  0  0  0
    0.3978   -5.1561   26.6955 C   0  0  0  0  0  0  0  0  0  0  0  0
    2.3063  -10.0533   30.0125 C   0  0  0  0  0  0  0  0  0  0  0  0
    1.8591   -6.8254   27.4685 N   0  0  0  0  0  0  0  0  0  0  0  0
   -0.2167  -12.1055   18.5568 C   0  0  0  0  0  0  0  0  0  0  0  0
   -2.0661  -10.6994   18.1916 C   0  0  0  0  0  0  0  0  0  0  0  0
    5.2703   -7.5691   27.1123 C   0  0  0  0  0  0  0  0  0  0  0  0
    1.6204   -9.9887   17.2935 C   0  0  0  0  0  0  0  0  0  0  0  0
    1.8931   -7.9265   16.2047 C   0  0  0  0  0  0  0  0  0  0  0  0
    2.4396   -9.0801   16.7132 C   0  0  0  0  0  0  0  0  0  0  0  0
   -0.2575   -8.6234   16.8582 C   0  0  0  0  0  0  0  0  0  0  0  0
    4.0614   -7.0367   27.0106 N   0  0  0  0  0  0  0  0  0  0  0  0
   -2.9133  -11.6279   18.7578 C   0  0  0  0  0  0  0  0  0  0  0  0
    4.5688  -10.1291   29.5758 C   0  0  0  0  0  0  0  0  0  0  0  0
    2.1008   -9.0410   29.1852 N   0  0  0  0  0  0  0  0  0  0  0  0
    3.4829  -10.5697   30.2091 N   0  0  0  0  0  0  0  0  0  0  0  0
   -0.3363   -6.1172   27.5628 C   0  0  0  0  0  0  0  0  0  0  0  0
    3.0331   -7.4400   27.6362 C   0  0  0  0  0  0  0  0  0  0  0  0
    5.4553   -8.5933   27.9644 C   0  0  0  0  0  0  0  0  0  0  0  0
   -2.3870  -12.8440   19.2512 C   0  0  0  0  0  0  0  0  0  0  0  0
    0.5331   -7.6964   16.2751 C   0  0  0  0  0  0  0  0  0  0  0  0
   -0.6740  -10.8737   18.0482 C   0  0  0  0  0  0  0  0  0  0  0  0
    5.6751  -10.5870   29.7637 O   0  0  0  0  0  0  0  0  0  0  0  0
    1.7612   -5.6483   26.7172 C   0  0  0  0  0  0  0  0  0  0  0  0
    0.2221   -9.8326   17.4055 C   0  0  0  0  0  0  0  0  0  0  0  0
    4.3850   -9.0730   28.6745 C   0  0  0  0  0  0  0  0  0  0  0  0
  1  7  4  0
  1 22  4  0
  2 17  4  0
  2 20  4  0
  2 28  4  0
  3  6  1  0
  3 19  1  0
  4 19  1  0
  4 26  1  0
  5 17  4  0
  5 18  4  0
  6 20  1  0
  6 26  1  0
  7 24  4  0
  8 15  4  0
  8 24  4  0
  9 14  4  0
  9 21  4  0
 10 12  4  0
 10 27  4  0
 11 12  4  0
 11 23  4  0
 13 23  4  0
 13 27  4  0
 14 20  4  0
 15 22  4  0
 16 18  4  0
 16 25  2  0
 16 28  4  0
 21 28  4  0
 24 27  1  0
M  END
$$$$

 Created by Python create_sdf_string function

 28 31  0  0  0  0  0  0  0  0999 V2000
   -1.0054  -13.0622   19.1198 C   0  0  0  0  0  0  0  0  0  0  0  0
    3.1478   -8.5360   28.5161 C   0  0  0  0  0  0  0  0  0  0  0  0
    0.5798   -7.1906   27.9330 C   0  0  0  0  0  0  0  0  0  0  0  0
    0.3978   -5.1561   26.6955 C   0  0  0  0  0  0  0  0  0  0  0  0
    2.3063  -10.0533   30.0125 C   0  0  0  0  0  0  0  0  0  0  0  0
    1.8591   -6.8254   27.4685 N   0  0  0  0  0  0  0  0  0  0  0  0
   -0.2167  -12.1055   18.5568 C   0  0  0  0  0  0  0  0  0  0  0  0
   -2.0661  -10.6994   18.1916 C   0  0  0  0  0  0  0  0  0  0  0  0
    5.2703   -7.5691   27.1123 C   0  0  0  0  0  0  0  0  0  0  0  0
    1.6204   -9.9887   17.2935 C   0  0  0  0  0  0  0  0  0  0  0  0
    1.8931   -7.9265   16.2047 C   0  0  0  0  0  0  0  0  0  0  0  0
    2.4396   -9.0801   16.7132 C   0  0  0  0  0  0  0  0  0  0  0  0
   -0.2575   -8.6234   16.8582 C   0  0  0  0  0  0  0  0  0  0  0  0
    4.0614   -7.0367   27.0106 N   0  0  0  0  0  0  0  0  0  0  0  0
   -2.9133  -11.6279   18.7578 C   0  0  0  0  0  0  0  0  0  0  0  0
    4.5688  -10.1291   29.5758 C   0  0  0  0  0  0  0  0  0  0  0  0
    2.1008   -9.0410   29.1852 N   0  0  0  0  0  0  0  0  0  0  0  0
    3.4829  -10.5697   30.2091 N   0  0  0  0  0  0  0  0  0  0  0  0
   -0.3363   -6.1172   27.5628 C   0  0  0  0  0  0  0  0  0  0  0  0
    3.0331   -7.4400   27.6362 C   0  0  0  0  0  0  0  0  0  0  0  0
    5.4553   -8.5933   27.9644 C   0  0  0  0  0  0  0  0  0  0  0  0
   -2.3870  -12.8440   19.2512 C   0  0  0  0  0  0  0  0  0  0  0  0
    0.5331   -7.6964   16.2751 C   0  0  0  0  0  0  0  0  0  0  0  0
   -0.6740  -10.8737   18.0482 C   0  0  0  0  0  0  0  0  0  0  0  0
    5.6751  -10.5870   29.7637 O   0  0  0  0  0  0  0  0  0  0  0  0
    1.7612   -5.6483   26.7172 C   0  0  0  0  0  0  0  0  0  0  0  0
    0.2221   -9.8326   17.4055 C   0  0  0  0  0  0  0  0  0  0  0  0
    4.3850   -9.0730   28.6745 C   0  0  0  0  0  0  0  0  0  0  0  0
  1  7  4  0
  1 22  4  0
  2 17  4  0
  2 20  4  0
  2 28  4  0
  3  6  1  0
  3 19  1  0
  4 19  1  0
  4 26  1  0
  5 17  4  0
  5 18  4  0
  6 20  1  0
  6 26  1  0
  7 24  4  0
  8 15  4  0
  8 24  4  0
  9 14  4  0
  9 21  4  0
 10 12  4  0
 10 27  4  0
 11 12  4  0
 11 23  4  0
 13 23  4  0
 13 27  4  0
 14 20  4  0
 15 22  4  0
 16 18  4  0
 16 25  2  0
 16 28  4  0
 21 28  4  0
 24 27  1  0
M  END
$$$$

 Created by Python create_sdf_string function

 28 31  0  0  0  0  0  0  0  0999 V2000
   -1.0054  -13.0622   19.1198 C   0  0  0  0  0  0  0  0  0  0  0  0
    3.1478   -8.5360   28.5161 C   0  0  0  0  0  0  0  0  0  0  0  0
    0.5798   -7.1906   27.9330 C   0  0  0  0  0  0  0  0  0  0  0  0
    0.3978   -5.1561   26.6955 C   0  0  0  0  0  0  0  0  0  0  0  0
    2.3063  -10.0533   30.0125 C   0  0  0  0  0  0  0  0  0  0  0  0
    1.8591   -6.8254   27.4685 N   0  0  0  0  0  0  0  0  0  0  0  0
   -0.2167  -12.1055   18.5568 C   0  0  0  0  0  0  0  0  0  0  0  0
   -2.0661  -10.6994   18.1916 C   0  0  0  0  0  0  0  0  0  0  0  0
    5.2703   -7.5691   27.1123 C   0  0  0  0  0  0  0  0  0  0  0  0
    1.6204   -9.9887   17.2935 C   0  0  0  0  0  0  0  0  0  0  0  0
    1.8931   -7.9265   16.2047 C   0  0  0  0  0  0  0  0  0  0  0  0
    2.4396   -9.0801   16.7132 C   0  0  0  0  0  0  0  0  0  0  0  0
   -0.2575   -8.6234   16.8582 C   0  0  0  0  0  0  0  0  0  0  0  0
    4.0614   -7.0367   27.0106 N   0  0  0  0  0  0  0  0  0  0  0  0
   -2.9133  -11.6279   18.7578 C   0  0  0  0  0  0  0  0  0  0  0  0
    4.5688  -10.1291   29.5758 C   0  0  0  0  0  0  0  0  0  0  0  0
    2.1008   -9.0410   29.1852 N   0  0  0  0  0  0  0  0  0  0  0  0
    3.4829  -10.5697   30.2091 N   0  0  0  0  0  0  0  0  0  0  0  0
   -0.3363   -6.1172   27.5628 C   0  0  0  0  0  0  0  0  0  0  0  0
    3.0331   -7.4400   27.6362 C   0  0  0  0  0  0  0  0  0  0  0  0
    5.4553   -8.5933   27.9644 C   0  0  0  0  0  0  0  0  0  0  0  0
   -2.3870  -12.8440   19.2512 C   0  0  0  0  0  0  0  0  0  0  0  0
    0.5331   -7.6964   16.2751 C   0  0  0  0  0  0  0  0  0  0  0  0
   -0.6740  -10.8737   18.0482 C   0  0  0  0  0  0  0  0  0  0  0  0
    5.6751  -10.5870   29.7637 O   0  0  0  0  0  0  0  0  0  0  0  0
    1.7612   -5.6483   26.7172 C   0  0  0  0  0  0  0  0  0  0  0  0
    0.2221   -9.8326   17.4055 C   0  0  0  0  0  0  0  0  0  0  0  0
    4.3850   -9.0730   28.6745 C   0  0  0  0  0  0  0  0  0  0  0  0
  1  7  4  0
  1 22  4  0
  2 17  4  0
  2 20  4  0
  2 28  4  0
  3  6  1  0
  3 19  1  0
  4 19  1  0
  4 26  1  0
  5 17  4  0
  5 18  4  0
  6 20  1  0
  6 26  1  0
  7 24  4  0
  8 15  4  0
  8 24  4  0
  9 14  4  0
  9 21  4  0
 10 12  4  0
 10 27  4  0
 11 12  4  0
 11 23  4  0
 13 23  4  0
 13 27  4  0
 14 20  4  0
 15 22  4  0
 16 18  4  0
 16 25  2  0
 16 28  4  0
 21 28  4  0
 24 27  1  0
M  END
$$$$

 Created by Python create_sdf_string function

 28 31  0  0  0  0  0  0  0  0999 V2000
   -1.0054  -13.0622   19.1198 C   0  0  0  0  0  0  0  0  0  0  0  0
    3.1478   -8.5360   28.5161 C   0  0  0  0  0  0  0  0  0  0  0  0
    0.5798   -7.1906   27.9330 C   0  0  0  0  0  0  0  0  0  0  0  0
    0.3978   -5.1561   26.6955 C   0  0  0  0  0  0  0  0  0  0  0  0
    2.3063  -10.0533   30.0125 C   0  0  0  0  0  0  0  0  0  0  0  0
    1.8591   -6.8254   27.4685 N   0  0  0  0  0  0  0  0  0  0  0  0
   -0.2167  -12.1055   18.5568 C   0  0  0  0  0  0  0  0  0  0  0  0
   -2.0661  -10.6994   18.1916 C   0  0  0  0  0  0  0  0  0  0  0  0
    5.2703   -7.5691   27.1123 C   0  0  0  0  0  0  0  0  0  0  0  0
    1.6204   -9.9887   17.2935 C   0  0  0  0  0  0  0  0  0  0  0  0
    1.8931   -7.9265   16.2047 C   0  0  0  0  0  0  0  0  0  0  0  0
    2.4396   -9.0801   16.7132 C   0  0  0  0  0  0  0  0  0  0  0  0
   -0.2575   -8.6234   16.8582 C   0  0  0  0  0  0  0  0  0  0  0  0
    4.0614   -7.0367   27.0106 N   0  0  0  0  0  0  0  0  0  0  0  0
   -2.9133  -11.6279   18.7578 C   0  0  0  0  0  0  0  0  0  0  0  0
    4.5688  -10.1291   29.5758 C   0  0  0  0  0  0  0  0  0  0  0  0
    2.1008   -9.0410   29.1852 N   0  0  0  0  0  0  0  0  0  0  0  0
    3.4829  -10.5697   30.2091 N   0  0  0  0  0  0  0  0  0  0  0  0
   -0.3363   -6.1172   27.5628 C   0  0  0  0  0  0  0  0  0  0  0  0
    3.0331   -7.4400   27.6362 C   0  0  0  0  0  0  0  0  0  0  0  0
    5.4553   -8.5933   27.9644 C   0  0  0  0  0  0  0  0  0  0  0  0
   -2.3870  -12.8440   19.2512 C   0  0  0  0  0  0  0  0  0  0  0  0
    0.5331   -7.6964   16.2751 C   0  0  0  0  0  0  0  0  0  0  0  0
   -0.6740  -10.8737   18.0482 C   0  0  0  0  0  0  0  0  0  0  0  0
    5.6751  -10.5870   29.7637 O   0  0  0  0  0  0  0  0  0  0  0  0
    1.7612   -5.6483   26.7172 C   0  0  0  0  0  0  0  0  0  0  0  0
    0.2221   -9.8326   17.4055 C   0  0  0  0  0  0  0  0  0  0  0  0
    4.3850   -9.0730   28.6745 C   0  0  0  0  0  0  0  0  0  0  0  0
  1  7  4  0
  1 22  4  0
  2 17  4  0
  2 20  4  0
  2 28  4  0
  3  6  1  0
  3 19  1  0
  4 19  1  0
  4 26  1  0
  5 17  4  0
  5 18  4  0
  6 20  1  0
  6 26  1  0
  7 24  4  0
  8 15  4  0
  8 24  4  0
  9 14  4  0
  9 21  4  0
 10 12  4  0
 10 27  4  0
 11 12  4  0
 11 23  4  0
 13 23  4  0
 13 27  4  0
 14 20  4  0
 15 22  4  0
 16 18  4  0
 16 25  2  0
 16 28  4  0
 21 28  4  0
 24 27  1  0
M  END
$$$$

 Created by Python create_sdf_string function

 28 31  0  0  0  0  0  0  0  0999 V2000
   -1.0054  -13.0622   19.1198 C   0  0  0  0  0  0  0  0  0  0  0  0
    3.1478   -8.5360   28.5161 C   0  0  0  0  0  0  0  0  0  0  0  0
    0.5798   -7.1906   27.9330 C   0  0  0  0  0  0  0  0  0  0  0  0
    0.3978   -5.1561   26.6955 C   0  0  0  0  0  0  0  0  0  0  0  0
    2.3063  -10.0533   30.0125 C   0  0  0  0  0  0  0  0  0  0  0  0
    1.8591   -6.8254   27.4685 N   0  0  0  0  0  0  0  0  0  0  0  0
   -0.2167  -12.1055   18.5568 C   0  0  0  0  0  0  0  0  0  0  0  0
   -2.0661  -10.6994   18.1916 C   0  0  0  0  0  0  0  0  0  0  0  0
    5.2703   -7.5691   27.1123 C   0  0  0  0  0  0  0  0  0  0  0  0
    1.6204   -9.9887   17.2935 C   0  0  0  0  0  0  0  0  0  0  0  0
    1.8931   -7.9265   16.2047 C   0  0  0  0  0  0  0  0  0  0  0  0
    2.4396   -9.0801   16.7132 C   0  0  0  0  0  0  0  0  0  0  0  0
   -0.2575   -8.6234   16.8582 C   0  0  0  0  0  0  0  0  0  0  0  0
    4.0614   -7.0367   27.0106 N   0  0  0  0  0  0  0  0  0  0  0  0
   -2.9133  -11.6279   18.7578 C   0  0  0  0  0  0  0  0  0  0  0  0
    4.5688  -10.1291   29.5758 C   0  0  0  0  0  0  0  0  0  0  0  0
    2.1008   -9.0410   29.1852 N   0  0  0  0  0  0  0  0  0  0  0  0
    3.4829  -10.5697   30.2091 N   0  0  0  0  0  0  0  0  0  0  0  0
   -0.3363   -6.1172   27.5628 C   0  0  0  0  0  0  0  0  0  0  0  0
    3.0331   -7.4400   27.6362 C   0  0  0  0  0  0  0  0  0  0  0  0
    5.4553   -8.5933   27.9644 C   0  0  0  0  0  0  0  0  0  0  0  0
   -2.3870  -12.8440   19.2512 C   0  0  0  0  0  0  0  0  0  0  0  0
    0.5331   -7.6964   16.2751 C   0  0  0  0  0  0  0  0  0  0  0  0
   -0.6740  -10.8737   18.0482 C   0  0  0  0  0  0  0  0  0  0  0  0
    5.6751  -10.5870   29.7637 O   0  0  0  0  0  0  0  0  0  0  0  0
    1.7612   -5.6483   26.7172 C   0  0  0  0  0  0  0  0  0  0  0  0
    0.2221   -9.8326   17.4055 C   0  0  0  0  0  0  0  0  0  0  0  0
    4.3850   -9.0730   28.6745 C   0  0  0  0  0  0  0  0  0  0  0  0
  1  7  4  0
  1 22  4  0
  2 17  4  0
  2 20  4  0
  2 28  4  0
  3  6  1  0
  3 19  1  0
  4 19  1  0
  4 26  1  0
  5 17  4  0
  5 18  4  0
  6 20  1  0
  6 26  1  0
  7 24  4  0
  8 15  4  0
  8 24  4  0
  9 14  4  0
  9 21  4  0
 10 12  4  0
 10 27  4  0
 11 12  4  0
 11 23  4  0
 13 23  4  0
 13 27  4  0
 14 20  4  0
 15 22  4  0
 16 18  4  0
 16 25  2  0
 16 28  4  0
 21 28  4  0
 24 27  1  0
M  END
$$$$

 Created by Python create_sdf_string function

 28 31  0  0  0  0  0  0  0  0999 V2000
   -1.0054  -13.0622   19.1198 C   0  0  0  0  0  0  0  0  0  0  0  0
    3.1478   -8.5360   28.5161 C   0  0  0  0  0  0  0  0  0  0  0  0
    0.5798   -7.1906   27.9330 C   0  0  0  0  0  0  0  0  0  0  0  0
    0.3978   -5.1561   26.6955 C   0  0  0  0  0  0  0  0  0  0  0  0
    2.3063  -10.0533   30.0125 C   0  0  0  0  0  0  0  0  0  0  0  0
    1.8591   -6.8254   27.4685 N   0  0  0  0  0  0  0  0  0  0  0  0
   -0.2167  -12.1055   18.5568 C   0  0  0  0  0  0  0  0  0  0  0  0
   -2.0661  -10.6994   18.1916 C   0  0  0  0  0  0  0  0  0  0  0  0
    5.2703   -7.5691   27.1123 C   0  0  0  0  0  0  0  0  0  0  0  0
    1.6204   -9.9887   17.2935 C   0  0  0  0  0  0  0  0  0  0  0  0
    1.8931   -7.9265   16.2047 C   0  0  0  0  0  0  0  0  0  0  0  0
    2.4396   -9.0801   16.7132 C   0  0  0  0  0  0  0  0  0  0  0  0
   -0.2575   -8.6234   16.8582 C   0  0  0  0  0  0  0  0  0  0  0  0
    4.0614   -7.0367   27.0106 N   0  0  0  0  0  0  0  0  0  0  0  0
   -2.9133  -11.6279   18.7578 C   0  0  0  0  0  0  0  0  0  0  0  0
    4.5688  -10.1291   29.5758 C   0  0  0  0  0  0  0  0  0  0  0  0
    2.1008   -9.0410   29.1852 N   0  0  0  0  0  0  0  0  0  0  0  0
    3.4829  -10.5697   30.2091 N   0  0  0  0  0  0  0  0  0  0  0  0
   -0.3363   -6.1172   27.5628 C   0  0  0  0  0  0  0  0  0  0  0  0
    3.0331   -7.4400   27.6362 C   0  0  0  0  0  0  0  0  0  0  0  0
    5.4553   -8.5933   27.9644 C   0  0  0  0  0  0  0  0  0  0  0  0
   -2.3870  -12.8440   19.2512 C   0  0  0  0  0  0  0  0  0  0  0  0
    0.5331   -7.6964   16.2751 C   0  0  0  0  0  0  0  0  0  0  0  0
   -0.6740  -10.8737   18.0482 C   0  0  0  0  0  0  0  0  0  0  0  0
    5.6751  -10.5870   29.7637 O   0  0  0  0  0  0  0  0  0  0  0  0
    1.7612   -5.6483   26.7172 C   0  0  0  0  0  0  0  0  0  0  0  0
    0.2221   -9.8326   17.4055 C   0  0  0  0  0  0  0  0  0  0  0  0
    4.3850   -9.0730   28.6745 C   0  0  0  0  0  0  0  0  0  0  0  0
  1  7  4  0
  1 22  4  0
  2 17  4  0
  2 20  4  0
  2 28  4  0
  3  6  1  0
  3 19  1  0
  4 19  1  0
  4 26  1  0
  5 17  4  0
  5 18  4  0
  6 20  1  0
  6 26  1  0
  7 24  4  0
  8 15  4  0
  8 24  4  0
  9 14  4  0
  9 21  4  0
 10 12  4  0
 10 27  4  0
 11 12  4  0
 11 23  4  0
 13 23  4  0
 13 27  4  0
 14 20  4  0
 15 22  4  0
 16 18  4  0
 16 25  2  0
 16 28  4  0
 21 28  4  0
 24 27  1  0
M  END
$$$$

 Created by Python create_sdf_string function

 28 31  0  0  0  0  0  0  0  0999 V2000
   -1.0054  -13.0622   19.1198 C   0  0  0  0  0  0  0  0  0  0  0  0
    3.1478   -8.5360   28.5161 C   0  0  0  0  0  0  0  0  0  0  0  0
    0.5798   -7.1906   27.9330 C   0  0  0  0  0  0  0  0  0  0  0  0
    0.3978   -5.1561   26.6955 C   0  0  0  0  0  0  0  0  0  0  0  0
    2.3063  -10.0533   30.0125 C   0  0  0  0  0  0  0  0  0  0  0  0
    1.8591   -6.8254   27.4685 N   0  0  0  0  0  0  0  0  0  0  0  0
   -0.2167  -12.1055   18.5568 C   0  0  0  0  0  0  0  0  0  0  0  0
   -2.0661  -10.6994   18.1916 C   0  0  0  0  0  0  0  0  0  0  0  0
    5.2703   -7.5691   27.1123 C   0  0  0  0  0  0  0  0  0  0  0  0
    1.6204   -9.9887   17.2935 C   0  0  0  0  0  0  0  0  0  0  0  0
    1.8931   -7.9265   16.2047 C   0  0  0  0  0  0  0  0  0  0  0  0
    2.4396   -9.0801   16.7132 C   0  0  0  0  0  0  0  0  0  0  0  0
   -0.2575   -8.6234   16.8582 C   0  0  0  0  0  0  0  0  0  0  0  0
    4.0614   -7.0367   27.0106 N   0  0  0  0  0  0  0  0  0  0  0  0
   -2.9133  -11.6279   18.7578 C   0  0  0  0  0  0  0  0  0  0  0  0
    4.5688  -10.1291   29.5758 C   0  0  0  0  0  0  0  0  0  0  0  0
    2.1008   -9.0410   29.1852 N   0  0  0  0  0  0  0  0  0  0  0  0
    3.4829  -10.5697   30.2091 N   0  0  0  0  0  0  0  0  0  0  0  0
   -0.3363   -6.1172   27.5628 C   0  0  0  0  0  0  0  0  0  0  0  0
    3.0331   -7.4400   27.6362 C   0  0  0  0  0  0  0  0  0  0  0  0
    5.4553   -8.5933   27.9644 C   0  0  0  0  0  0  0  0  0  0  0  0
   -2.3870  -12.8440   19.2512 C   0  0  0  0  0  0  0  0  0  0  0  0
    0.5331   -7.6964   16.2751 C   0  0  0  0  0  0  0  0  0  0  0  0
   -0.6740  -10.8737   18.0482 C   0  0  0  0  0  0  0  0  0  0  0  0
    5.6751  -10.5870   29.7637 O   0  0  0  0  0  0  0  0  0  0  0  0
    1.7612   -5.6483   26.7172 C   0  0  0  0  0  0  0  0  0  0  0  0
    0.2221   -9.8326   17.4055 C   0  0  0  0  0  0  0  0  0  0  0  0
    4.3850   -9.0730   28.6745 C   0  0  0  0  0  0  0  0  0  0  0  0
  1  7  4  0
  1 22  4  0
  2 17  4  0
  2 20  4  0
  2 28  4  0
  3  6  1  0
  3 19  1  0
  4 19  1  0
  4 26  1  0
  5 17  4  0
  5 18  4  0
  6 20  1  0
  6 26  1  0
  7 24  4  0
  8 15  4  0
  8 24  4  0
  9 14  4  0
  9 21  4  0
 10 12  4  0
 10 27  4  0
 11 12  4  0
 11 23  4  0
 13 23  4  0
 13 27  4  0
 14 20  4  0
 15 22  4  0
 16 18  4  0
 16 25  2  0
 16 28  4  0
 21 28  4  0
 24 27  1  0
M  END
$$$$

 Created by Python create_sdf_string function

 28 31  0  0  0  0  0  0  0  0999 V2000
   -1.0054  -13.0622   19.1198 C   0  0  0  0  0  0  0  0  0  0  0  0
    3.1478   -8.5360   28.5161 C   0  0  0  0  0  0  0  0  0  0  0  0
    0.5798   -7.1906   27.9330 C   0  0  0  0  0  0  0  0  0  0  0  0
    0.3978   -5.1561   26.6955 C   0  0  0  0  0  0  0  0  0  0  0  0
    2.3063  -10.0533   30.0125 C   0  0  0  0  0  0  0  0  0  0  0  0
    1.8591   -6.8254   27.4685 N   0  0  0  0  0  0  0  0  0  0  0  0
   -0.2167  -12.1055   18.5568 C   0  0  0  0  0  0  0  0  0  0  0  0
   -2.0661  -10.6994   18.1916 C   0  0  0  0  0  0  0  0  0  0  0  0
    5.2703   -7.5691   27.1123 C   0  0  0  0  0  0  0  0  0  0  0  0
    1.6204   -9.9887   17.2935 C   0  0  0  0  0  0  0  0  0  0  0  0
    1.8931   -7.9265   16.2047 C   0  0  0  0  0  0  0  0  0  0  0  0
    2.4396   -9.0801   16.7132 C   0  0  0  0  0  0  0  0  0  0  0  0
   -0.2575   -8.6234   16.8582 C   0  0  0  0  0  0  0  0  0  0  0  0
    4.0614   -7.0367   27.0106 N   0  0  0  0  0  0  0  0  0  0  0  0
   -2.9133  -11.6279   18.7578 C   0  0  0  0  0  0  0  0  0  0  0  0
    4.5688  -10.1291   29.5758 C   0  0  0  0  0  0  0  0  0  0  0  0
    2.1008   -9.0410   29.1852 N   0  0  0  0  0  0  0  0  0  0  0  0
    3.4829  -10.5697   30.2091 N   0  0  0  0  0  0  0  0  0  0  0  0
   -0.3363   -6.1172   27.5628 C   0  0  0  0  0  0  0  0  0  0  0  0
    3.0331   -7.4400   27.6362 C   0  0  0  0  0  0  0  0  0  0  0  0
    5.4553   -8.5933   27.9644 C   0  0  0  0  0  0  0  0  0  0  0  0
   -2.3870  -12.8440   19.2512 C   0  0  0  0  0  0  0  0  0  0  0  0
    0.5331   -7.6964   16.2751 C   0  0  0  0  0  0  0  0  0  0  0  0
   -0.6740  -10.8737   18.0482 C   0  0  0  0  0  0  0  0  0  0  0  0
    5.6751  -10.5870   29.7637 O   0  0  0  0  0  0  0  0  0  0  0  0
    1.7612   -5.6483   26.7172 C   0  0  0  0  0  0  0  0  0  0  0  0
    0.2221   -9.8326   17.4055 C   0  0  0  0  0  0  0  0  0  0  0  0
    4.3850   -9.0730   28.6745 C   0  0  0  0  0  0  0  0  0  0  0  0
  1  7  4  0
  1 22  4  0
  2 17  4  0
  2 20  4  0
  2 28  4  0
  3  6  1  0
  3 19  1  0
  4 19  1  0
  4 26  1  0
  5 17  4  0
  5 18  4  0
  6 20  1  0
  6 26  1  0
  7 24  4  0
  8 15  4  0
  8 24  4  0
  9 14  4  0
  9 21  4  0
 10 12  4  0
 10 27  4  0
 11 12  4  0
 11 23  4  0
 13 23  4  0
 13 27  4  0
 14 20  4  0
 15 22  4  0
 16 18  4  0
 16 25  2  0
 16 28  4  0
 21 28  4  0
 24 27  1  0
M  END
$$$$

 Created by Python create_sdf_string function

 28 31  0  0  0  0  0  0  0  0999 V2000
   -1.0054  -13.0622   19.1198 C   0  0  0  0  0  0  0  0  0  0  0  0
    3.1478   -8.5360   28.5161 C   0  0  0  0  0  0  0  0  0  0  0  0
    0.5798   -7.1906   27.9330 C   0  0  0  0  0  0  0  0  0  0  0  0
    0.3978   -5.1561   26.6955 C   0  0  0  0  0  0  0  0  0  0  0  0
    2.3063  -10.0533   30.0125 C   0  0  0  0  0  0  0  0  0  0  0  0
    1.8591   -6.8254   27.4685 N   0  0  0  0  0  0  0  0  0  0  0  0
   -0.2167  -12.1055   18.5568 C   0  0  0  0  0  0  0  0  0  0  0  0
   -2.0661  -10.6994   18.1916 C   0  0  0  0  0  0  0  0  0  0  0  0
    5.2703   -7.5691   27.1123 C   0  0  0  0  0  0  0  0  0  0  0  0
    1.6204   -9.9887   17.2935 C   0  0  0  0  0  0  0  0  0  0  0  0
    1.8931   -7.9265   16.2047 C   0  0  0  0  0  0  0  0  0  0  0  0
    2.4396   -9.0801   16.7132 C   0  0  0  0  0  0  0  0  0  0  0  0
   -0.2575   -8.6234   16.8582 C   0  0  0  0  0  0  0  0  0  0  0  0
    4.0614   -7.0367   27.0106 N   0  0  0  0  0  0  0  0  0  0  0  0
   -2.9133  -11.6279   18.7578 C   0  0  0  0  0  0  0  0  0  0  0  0
    4.5688  -10.1291   29.5758 C   0  0  0  0  0  0  0  0  0  0  0  0
    2.1008   -9.0410   29.1852 N   0  0  0  0  0  0  0  0  0  0  0  0
    3.4829  -10.5697   30.2091 N   0  0  0  0  0  0  0  0  0  0  0  0
   -0.3363   -6.1172   27.5628 C   0  0  0  0  0  0  0  0  0  0  0  0
    3.0331   -7.4400   27.6362 C   0  0  0  0  0  0  0  0  0  0  0  0
    5.4553   -8.5933   27.9644 C   0  0  0  0  0  0  0  0  0  0  0  0
   -2.3870  -12.8440   19.2512 C   0  0  0  0  0  0  0  0  0  0  0  0
    0.5331   -7.6964   16.2751 C   0  0  0  0  0  0  0  0  0  0  0  0
   -0.6740  -10.8737   18.0482 C   0  0  0  0  0  0  0  0  0  0  0  0
    5.6751  -10.5870   29.7637 O   0  0  0  0  0  0  0  0  0  0  0  0
    1.7612   -5.6483   26.7172 C   0  0  0  0  0  0  0  0  0  0  0  0
    0.2221   -9.8326   17.4055 C   0  0  0  0  0  0  0  0  0  0  0  0
    4.3850   -9.0730   28.6745 C   0  0  0  0  0  0  0  0  0  0  0  0
  1  7  4  0
  1 22  4  0
  2 17  4  0
  2 20  4  0
  2 28  4  0
  3  6  1  0
  3 19  1  0
  4 19  1  0
  4 26  1  0
  5 17  4  0
  5 18  4  0
  6 20  1  0
  6 26  1  0
  7 24  4  0
  8 15  4  0
  8 24  4  0
  9 14  4  0
  9 21  4  0
 10 12  4  0
 10 27  4  0
 11 12  4  0
 11 23  4  0
 13 23  4  0
 13 27  4  0
 14 20  4  0
 15 22  4  0
 16 18  4  0
 16 25  2  0
 16 28  4  0
 21 28  4  0
 24 27  1  0
M  END
$$$$

 Created by Python create_sdf_string function

 28 31  0  0  0  0  0  0  0  0999 V2000
   -1.0054  -13.0622   19.1198 C   0  0  0  0  0  0  0  0  0  0  0  0
    3.1478   -8.5360   28.5161 C   0  0  0  0  0  0  0  0  0  0  0  0
    0.5798   -7.1906   27.9330 C   0  0  0  0  0  0  0  0  0  0  0  0
    0.3978   -5.1561   26.6955 C   0  0  0  0  0  0  0  0  0  0  0  0
    2.3063  -10.0533   30.0125 C   0  0  0  0  0  0  0  0  0  0  0  0
    1.8591   -6.8254   27.4685 N   0  0  0  0  0  0  0  0  0  0  0  0
   -0.2167  -12.1055   18.5568 C   0  0  0  0  0  0  0  0  0  0  0  0
   -2.0661  -10.6994   18.1916 C   0  0  0  0  0  0  0  0  0  0  0  0
    5.2703   -7.5691   27.1123 C   0  0  0  0  0  0  0  0  0  0  0  0
    1.6204   -9.9887   17.2935 C   0  0  0  0  0  0  0  0  0  0  0  0
    1.8931   -7.9265   16.2047 C   0  0  0  0  0  0  0  0  0  0  0  0
    2.4396   -9.0801   16.7132 C   0  0  0  0  0  0  0  0  0  0  0  0
   -0.2575   -8.6234   16.8582 C   0  0  0  0  0  0  0  0  0  0  0  0
    4.0614   -7.0367   27.0106 N   0  0  0  0  0  0  0  0  0  0  0  0
   -2.9133  -11.6279   18.7578 C   0  0  0  0  0  0  0  0  0  0  0  0
    4.5688  -10.1291   29.5758 C   0  0  0  0  0  0  0  0  0  0  0  0
    2.1008   -9.0410   29.1852 N   0  0  0  0  0  0  0  0  0  0  0  0
    3.4829  -10.5697   30.2091 N   0  0  0  0  0  0  0  0  0  0  0  0
   -0.3363   -6.1172   27.5628 C   0  0  0  0  0  0  0  0  0  0  0  0
    3.0331   -7.4400   27.6362 C   0  0  0  0  0  0  0  0  0  0  0  0
    5.4553   -8.5933   27.9644 C   0  0  0  0  0  0  0  0  0  0  0  0
   -2.3870  -12.8440   19.2512 C   0  0  0  0  0  0  0  0  0  0  0  0
    0.5331   -7.6964   16.2751 C   0  0  0  0  0  0  0  0  0  0  0  0
   -0.6740  -10.8737   18.0482 C   0  0  0  0  0  0  0  0  0  0  0  0
    5.6751  -10.5870   29.7637 O   0  0  0  0  0  0  0  0  0  0  0  0
    1.7612   -5.6483   26.7172 C   0  0  0  0  0  0  0  0  0  0  0  0
    0.2221   -9.8326   17.4055 C   0  0  0  0  0  0  0  0  0  0  0  0
    4.3850   -9.0730   28.6745 C   0  0  0  0  0  0  0  0  0  0  0  0
  1  7  4  0
  1 22  4  0
  2 17  4  0
  2 20  4  0
  2 28  4  0
  3  6  1  0
  3 19  1  0
  4 19  1  0
  4 26  1  0
  5 17  4  0
  5 18  4  0
  6 20  1  0
  6 26  1  0
  7 24  4  0
  8 15  4  0
  8 24  4  0
  9 14  4  0
  9 21  4  0
 10 12  4  0
 10 27  4  0
 11 12  4  0
 11 23  4  0
 13 23  4  0
 13 27  4  0
 14 20  4  0
 15 22  4  0
 16 18  4  0
 16 25  2  0
 16 28  4  0
 21 28  4  0
 24 27  1  0
M  END
